/*--------------------------------*- C++ -*----------------------------------*\
| =========                 |                                                 |
| \\      /  F ield         | OpenFOAM: The Open Source CFD Toolbox           |
|  \\    /   O peration     | Version:  2112                                  |
|   \\  /    A nd           | Website:  www.openfoam.com                      |
|    \\/     M anipulation  |                                                 |
\*---------------------------------------------------------------------------*/
FoamFile
{
    version     2.0;
    format      ascii;
    arch        "LSB;label=64;scalar=64";
    class       scalarField;
    location    "constant";
    object      xDim;
}
// * * * * * * * * * * * * * * * * * * * * * * * * * * * * * * * * * * * * * //


6270
(
0.000718177973189
0.000672678883491
0.00063006232047
0.00059014566596
0.0005527578713
0.00051773872437
0.00048493816303
0.00045421563213
0.00042543948115
0.0003984864001
0.00037324089115
0.00034959477357
0.00032744672038
0.0003067018239
0.00028727118928
0.00027244600029
0.0002724460003
0.00027244600029
0.00027244600029
0.0002724460003
0.00027244600029
0.00027244600029
0.0002724460003
0.00027244600029
0.000718177973189
0.000672678883491
0.00063006232047
0.00059014566596
0.0005527578713
0.00051773872437
0.00048493816303
0.00045421563213
0.00042543948115
0.0003984864001
0.00037324089115
0.00034959477357
0.00032744672038
0.0003067018239
0.00028727118928
0.00027244600029
0.0002724460003
0.00027244600029
0.00027244600029
0.0002724460003
0.00027244600029
0.00027244600029
0.0002724460003
0.00027244600029
0.000718177973189
0.000672678883491
0.00063006232047
0.00059014566596
0.0005527578713
0.00051773872437
0.00048493816303
0.00045421563213
0.00042543948115
0.0003984864001
0.00037324089115
0.00034959477357
0.00032744672038
0.0003067018239
0.00028727118928
0.00027244600029
0.0002724460003
0.00027244600029
0.00027244600029
0.0002724460003
0.00027244600029
0.00027244600029
0.0002724460003
0.00027244600029
0.000718177973189
0.000672678883491
0.00063006232047
0.00059014566596
0.0005527578713
0.00051773872437
0.00048493816303
0.00045421563213
0.00042543948115
0.0003984864001
0.00037324089115
0.00034959477357
0.00032744672038
0.0003067018239
0.00028727118928
0.00027244600029
0.0002724460003
0.00027244600029
0.00027244600029
0.0002724460003
0.00027244600029
0.00027244600029
0.0002724460003
0.00027244600029
0.000718177973189
0.000672678883491
0.00063006232047
0.00059014566596
0.0005527578713
0.00051773872437
0.00048493816303
0.00045421563213
0.00042543948115
0.0003984864001
0.00037324089115
0.00034959477357
0.00032744672038
0.0003067018239
0.00028727118928
0.00027244600029
0.0002724460003
0.00027244600029
0.00027244600029
0.0002724460003
0.00027244600029
0.00027244600029
0.0002724460003
0.00027244600029
0.000718177973189
0.000672678883491
0.00063006232047
0.00059014566596
0.0005527578713
0.00051773872437
0.00048493816303
0.00045421563213
0.00042543948115
0.0003984864001
0.00037324089115
0.00034959477357
0.00032744672038
0.0003067018239
0.00028727118928
0.00027244600029
0.0002724460003
0.00027244600029
0.00027244600029
0.0002724460003
0.00027244600029
0.00027244600029
0.0002724460003
0.00027244600029
0.000718177973189
0.000672678883491
0.00063006232047
0.00059014566596
0.0005527578713
0.00051773872437
0.00048493816303
0.00045421563213
0.00042543948115
0.0003984864001
0.00037324089115
0.00034959477357
0.00032744672038
0.0003067018239
0.00028727118928
0.00027244600029
0.0002724460003
0.00027244600029
0.00027244600029
0.0002724460003
0.00027244600029
0.00027244600029
0.0002724460003
0.00027244600029
0.000718177973189
0.000672678883491
0.00063006232047
0.00059014566596
0.0005527578713
0.00051773872437
0.00048493816303
0.00045421563213
0.00042543948115
0.0003984864001
0.00037324089115
0.00034959477357
0.00032744672038
0.0003067018239
0.00028727118928
0.00027244600029
0.0002724460003
0.00027244600029
0.00027244600029
0.0002724460003
0.00027244600029
0.00027244600029
0.0002724460003
0.00027244600029
0.000718177973189
0.000672678883491
0.00063006232047
0.00059014566596
0.0005527578713
0.00051773872437
0.00048493816303
0.00045421563213
0.00042543948115
0.0003984864001
0.00037324089115
0.00034959477357
0.00032744672038
0.0003067018239
0.00028727118928
0.00027244600029
0.0002724460003
0.00027244600029
0.00027244600029
0.0002724460003
0.00027244600029
0.00027244600029
0.0002724460003
0.00027244600029
0.000718177973189
0.000672678883491
0.00063006232047
0.00059014566596
0.0005527578713
0.00051773872437
0.00048493816303
0.00045421563213
0.00042543948115
0.0003984864001
0.00037324089115
0.00034959477357
0.00032744672038
0.0003067018239
0.00028727118928
0.00027244600029
0.0002724460003
0.00027244600029
0.00027244600029
0.0002724460003
0.00027244600029
0.00027244600029
0.0002724460003
0.00027244600029
0.000718177973189
0.000672678883491
0.00063006232047
0.00059014566596
0.0005527578713
0.00051773872437
0.00048493816303
0.00045421563213
0.00042543948115
0.0003984864001
0.00037324089115
0.00034959477357
0.00032744672038
0.0003067018239
0.00028727118928
0.00027244600029
0.0002724460003
0.00027244600029
0.00027244600029
0.0002724460003
0.00027244600029
0.00027244600029
0.0002724460003
0.00027244600029
0.000718177973189
0.000672678883491
0.00063006232047
0.00059014566596
0.0005527578713
0.00051773872437
0.00048493816303
0.00045421563213
0.00042543948115
0.0003984864001
0.00037324089115
0.00034959477357
0.00032744672038
0.0003067018239
0.00028727118928
0.00027244600029
0.0002724460003
0.00027244600029
0.00027244600029
0.0002724460003
0.00027244600029
0.00027244600029
0.0002724460003
0.00027244600029
0.000718177973189
0.000672678883491
0.00063006232047
0.00059014566596
0.0005527578713
0.00051773872437
0.00048493816303
0.00045421563213
0.00042543948115
0.0003984864001
0.00037324089115
0.00034959477357
0.00032744672038
0.0003067018239
0.00028727118928
0.00027244600029
0.0002724460003
0.00027244600029
0.00027244600029
0.0002724460003
0.00027244600029
0.00027244600029
0.0002724460003
0.00027244600029
0.000718177973189
0.000672678883491
0.00063006232047
0.00059014566596
0.0005527578713
0.00051773872437
0.00048493816303
0.00045421563213
0.00042543948115
0.0003984864001
0.00037324089115
0.00034959477357
0.00032744672038
0.0003067018239
0.00028727118928
0.00027244600029
0.0002724460003
0.00027244600029
0.00027244600029
0.0002724460003
0.00027244600029
0.00027244600029
0.0002724460003
0.00027244600029
0.000718177973189
0.000672678883491
0.00063006232047
0.00059014566596
0.0005527578713
0.00051773872437
0.00048493816303
0.00045421563213
0.00042543948115
0.0003984864001
0.00037324089115
0.00034959477357
0.00032744672038
0.0003067018239
0.00028727118928
0.00027244600029
0.0002724460003
0.00027244600029
0.00027244600029
0.0002724460003
0.00027244600029
0.00027244600029
0.0002724460003
0.00027244600029
0.000718177973189
0.000672678883491
0.00063006232047
0.00059014566596
0.0005527578713
0.00051773872437
0.00048493816303
0.00045421563213
0.00042543948115
0.0003984864001
0.00037324089115
0.00034959477357
0.00032744672038
0.0003067018239
0.00028727118928
0.00027244600029
0.0002724460003
0.00027244600029
0.00027244600029
0.0002724460003
0.00027244600029
0.00027244600029
0.0002724460003
0.00027244600029
0.000718177973189
0.000672678883491
0.00063006232047
0.00059014566596
0.0005527578713
0.00051773872437
0.00048493816303
0.00045421563213
0.00042543948115
0.0003984864001
0.00037324089115
0.00034959477357
0.00032744672038
0.0003067018239
0.00028727118928
0.00027244600029
0.0002724460003
0.00027244600029
0.00027244600029
0.0002724460003
0.00027244600029
0.00027244600029
0.0002724460003
0.00027244600029
0.000718177973189
0.000672678883491
0.00063006232047
0.00059014566596
0.0005527578713
0.00051773872437
0.00048493816303
0.00045421563213
0.00042543948115
0.0003984864001
0.00037324089115
0.00034959477357
0.00032744672038
0.0003067018239
0.00028727118928
0.00027244600029
0.0002724460003
0.00027244600029
0.00027244600029
0.0002724460003
0.00027244600029
0.00027244600029
0.0002724460003
0.00027244600029
0.000718177973189
0.000672678883491
0.00063006232047
0.00059014566596
0.0005527578713
0.00051773872437
0.00048493816303
0.00045421563213
0.00042543948115
0.0003984864001
0.00037324089115
0.00034959477357
0.00032744672038
0.0003067018239
0.00028727118928
0.00027244600029
0.0002724460003
0.00027244600029
0.00027244600029
0.0002724460003
0.00027244600029
0.00027244600029
0.0002724460003
0.00027244600029
0.000718177973189
0.000672678883491
0.00063006232047
0.00059014566596
0.0005527578713
0.00051773872437
0.00048493816303
0.00045421563213
0.00042543948115
0.0003984864001
0.00037324089115
0.00034959477357
0.00032744672038
0.0003067018239
0.00028727118928
0.00027244600029
0.0002724460003
0.00027244600029
0.00027244600029
0.0002724460003
0.00027244600029
0.00027244600029
0.0002724460003
0.00027244600029
0.000718177973189
0.000672678883491
0.00063006232047
0.00059014566596
0.0005527578713
0.00051773872437
0.00048493816303
0.00045421563213
0.00042543948115
0.0003984864001
0.00037324089115
0.00034959477357
0.00032744672038
0.0003067018239
0.00028727118928
0.00027244600029
0.0002724460003
0.00027244600029
0.00027244600029
0.0002724460003
0.00027244600029
0.00027244600029
0.0002724460003
0.00027244600029
0.000718177973189
0.000672678883491
0.00063006232047
0.00059014566596
0.0005527578713
0.00051773872437
0.00048493816303
0.00045421563213
0.00042543948115
0.0003984864001
0.00037324089115
0.00034959477357
0.00032744672038
0.0003067018239
0.00028727118928
0.00027244600029
0.0002724460003
0.00027244600029
0.00027244600029
0.0002724460003
0.00027244600029
0.00027244600029
0.0002724460003
0.00027244600029
0.000718177973189
0.000672678883491
0.00063006232047
0.00059014566596
0.0005527578713
0.00051773872437
0.00048493816303
0.00045421563213
0.00042543948115
0.0003984864001
0.00037324089115
0.00034959477357
0.00032744672038
0.0003067018239
0.00028727118928
0.00027244600029
0.0002724460003
0.00027244600029
0.00027244600029
0.0002724460003
0.00027244600029
0.00027244600029
0.0002724460003
0.00027244600029
0.000718177973189
0.000672678883491
0.00063006232047
0.00059014566596
0.0005527578713
0.00051773872437
0.00048493816303
0.00045421563213
0.00042543948115
0.0003984864001
0.00037324089115
0.00034959477357
0.00032744672038
0.0003067018239
0.00028727118928
0.00027244600029
0.0002724460003
0.00027244600029
0.00027244600029
0.0002724460003
0.00027244600029
0.00027244600029
0.0002724460003
0.00027244600029
0.000718177973189
0.000672678883491
0.00063006232047
0.00059014566596
0.0005527578713
0.00051773872437
0.00048493816303
0.00045421563213
0.00042543948115
0.0003984864001
0.00037324089115
0.00034959477357
0.00032744672038
0.0003067018239
0.00028727118928
0.00027244600029
0.0002724460003
0.00027244600029
0.00027244600029
0.0002724460003
0.00027244600029
0.00027244600029
0.0002724460003
0.00027244600029
0.000718177973189
0.000672678883491
0.00063006232047
0.00059014566596
0.0005527578713
0.00051773872437
0.00048493816303
0.00045421563213
0.00042543948115
0.0003984864001
0.00037324089115
0.00034959477357
0.00032744672038
0.0003067018239
0.00028727118928
0.00027244600029
0.0002724460003
0.00027244600029
0.00027244600029
0.0002724460003
0.00027244600029
0.00027244600029
0.0002724460003
0.00027244600029
0.000718177973189
0.000672678883491
0.00063006232047
0.00059014566596
0.0005527578713
0.00051773872437
0.00048493816303
0.00045421563213
0.00042543948115
0.0003984864001
0.00037324089115
0.00034959477357
0.00032744672038
0.0003067018239
0.00028727118928
0.00027244600029
0.0002724460003
0.00027244600029
0.00027244600029
0.0002724460003
0.00027244600029
0.00027244600029
0.0002724460003
0.00027244600029
0.000718177973189
0.000672678883491
0.00063006232047
0.00059014566596
0.0005527578713
0.00051773872437
0.00048493816303
0.00045421563213
0.00042543948115
0.0003984864001
0.00037324089115
0.00034959477357
0.00032744672038
0.0003067018239
0.00028727118928
0.00027244600029
0.0002724460003
0.00027244600029
0.00027244600029
0.0002724460003
0.00027244600029
0.00027244600029
0.0002724460003
0.00027244600029
0.000718177973189
0.000672678883491
0.00063006232047
0.00059014566596
0.0005527578713
0.00051773872437
0.00048493816303
0.00045421563213
0.00042543948115
0.0003984864001
0.00037324089115
0.00034959477357
0.00032744672038
0.0003067018239
0.00028727118928
0.00027244600029
0.0002724460003
0.00027244600029
0.00027244600029
0.0002724460003
0.00027244600029
0.00027244600029
0.0002724460003
0.00027244600029
0.000718177973189
0.000672678883491
0.00063006232047
0.00059014566596
0.0005527578713
0.00051773872437
0.00048493816303
0.00045421563213
0.00042543948115
0.0003984864001
0.00037324089115
0.00034959477357
0.00032744672038
0.0003067018239
0.00028727118928
0.00027244600029
0.0002724460003
0.00027244600029
0.00027244600029
0.0002724460003
0.00027244600029
0.00027244600029
0.0002724460003
0.00027244600029
0.000718177973189
0.000672678883491
0.00063006232047
0.00059014566596
0.0005527578713
0.00051773872437
0.00048493816303
0.00045421563213
0.00042543948115
0.0003984864001
0.00037324089115
0.00034959477357
0.00032744672038
0.0003067018239
0.00028727118928
0.00027244600029
0.0002724460003
0.00027244600029
0.00027244600029
0.0002724460003
0.00027244600029
0.00027244600029
0.0002724460003
0.00027244600029
0.000718177973189
0.000672678883491
0.00063006232047
0.00059014566596
0.0005527578713
0.00051773872437
0.00048493816303
0.00045421563213
0.00042543948115
0.0003984864001
0.00037324089115
0.00034959477357
0.00032744672038
0.0003067018239
0.00028727118928
0.00027244600029
0.0002724460003
0.00027244600029
0.00027244600029
0.0002724460003
0.00027244600029
0.00027244600029
0.0002724460003
0.00027244600029
0.000718177973189
0.000672678883491
0.00063006232047
0.00059014566596
0.0005527578713
0.00051773872437
0.00048493816303
0.00045421563213
0.00042543948115
0.0003984864001
0.00037324089115
0.00034959477357
0.00032744672038
0.0003067018239
0.00028727118928
0.00027244600029
0.0002724460003
0.00027244600029
0.00027244600029
0.0002724460003
0.00027244600029
0.00027244600029
0.0002724460003
0.00027244600029
0.000718177973189
0.000672678883491
0.00063006232047
0.00059014566596
0.0005527578713
0.00051773872437
0.00048493816303
0.00045421563213
0.00042543948115
0.0003984864001
0.00037324089115
0.00034959477357
0.00032744672038
0.0003067018239
0.00028727118928
0.00027244600029
0.0002724460003
0.00027244600029
0.00027244600029
0.0002724460003
0.00027244600029
0.00027244600029
0.0002724460003
0.00027244600029
0.000718177973189
0.000672678883491
0.00063006232047
0.00059014566596
0.0005527578713
0.00051773872437
0.00048493816303
0.00045421563213
0.00042543948115
0.0003984864001
0.00037324089115
0.00034959477357
0.00032744672038
0.0003067018239
0.00028727118928
0.00027244600029
0.0002724460003
0.00027244600029
0.00027244600029
0.0002724460003
0.00027244600029
0.00027244600029
0.0002724460003
0.00027244600029
0.000718177973189
0.000672678883491
0.00063006232047
0.00059014566596
0.0005527578713
0.00051773872437
0.00048493816303
0.00045421563213
0.00042543948115
0.0003984864001
0.00037324089115
0.00034959477357
0.00032744672038
0.0003067018239
0.00028727118928
0.00027244600029
0.0002724460003
0.00027244600029
0.00027244600029
0.0002724460003
0.00027244600029
0.00027244600029
0.0002724460003
0.00027244600029
0.000718177973189
0.000672678883491
0.00063006232047
0.00059014566596
0.0005527578713
0.00051773872437
0.00048493816303
0.00045421563213
0.00042543948115
0.0003984864001
0.00037324089115
0.00034959477357
0.00032744672038
0.0003067018239
0.00028727118928
0.00027244600029
0.0002724460003
0.00027244600029
0.00027244600029
0.0002724460003
0.00027244600029
0.00027244600029
0.0002724460003
0.00027244600029
0.000718177973189
0.000672678883491
0.00063006232047
0.00059014566596
0.0005527578713
0.00051773872437
0.00048493816303
0.00045421563213
0.00042543948115
0.0003984864001
0.00037324089115
0.00034959477357
0.00032744672038
0.0003067018239
0.00028727118928
0.00027244600029
0.0002724460003
0.00027244600029
0.00027244600029
0.0002724460003
0.00027244600029
0.00027244600029
0.0002724460003
0.00027244600029
0.000718177973189
0.000672678883491
0.00063006232047
0.00059014566596
0.0005527578713
0.00051773872437
0.00048493816303
0.00045421563213
0.00042543948115
0.0003984864001
0.00037324089115
0.00034959477357
0.00032744672038
0.0003067018239
0.00028727118928
0.00027244600029
0.0002724460003
0.00027244600029
0.00027244600029
0.0002724460003
0.00027244600029
0.00027244600029
0.0002724460003
0.00027244600029
0.000718177973189
0.000672678883491
0.00063006232047
0.00059014566596
0.0005527578713
0.00051773872437
0.00048493816303
0.00045421563213
0.00042543948115
0.0003984864001
0.00037324089115
0.00034959477357
0.00032744672038
0.0003067018239
0.00028727118928
0.00027244600029
0.0002724460003
0.00027244600029
0.00027244600029
0.0002724460003
0.00027244600029
0.00027244600029
0.0002724460003
0.00027244600029
0.000718177973189
0.000672678883491
0.00063006232047
0.00059014566596
0.0005527578713
0.00051773872437
0.00048493816303
0.00045421563213
0.00042543948115
0.0003984864001
0.00037324089115
0.00034959477357
0.00032744672038
0.0003067018239
0.00028727118928
0.00027244600029
0.0002724460003
0.00027244600029
0.00027244600029
0.0002724460003
0.00027244600029
0.00027244600029
0.0002724460003
0.00027244600029
0.000718177973189
0.000672678883491
0.00063006232047
0.00059014566596
0.0005527578713
0.00051773872437
0.00048493816303
0.00045421563213
0.00042543948115
0.0003984864001
0.00037324089115
0.00034959477357
0.00032744672038
0.0003067018239
0.00028727118928
0.00027244600029
0.0002724460003
0.00027244600029
0.00027244600029
0.0002724460003
0.00027244600029
0.00027244600029
0.0002724460003
0.00027244600029
0.000718177973189
0.000672678883491
0.00063006232047
0.00059014566596
0.0005527578713
0.00051773872437
0.00048493816303
0.00045421563213
0.00042543948115
0.0003984864001
0.00037324089115
0.00034959477357
0.00032744672038
0.0003067018239
0.00028727118928
0.00027244600029
0.0002724460003
0.00027244600029
0.00027244600029
0.0002724460003
0.00027244600029
0.00027244600029
0.0002724460003
0.00027244600029
0.000718177973189
0.000672678883491
0.00063006232047
0.00059014566596
0.0005527578713
0.00051773872437
0.00048493816303
0.00045421563213
0.00042543948115
0.0003984864001
0.00037324089115
0.00034959477357
0.00032744672038
0.0003067018239
0.00028727118928
0.00027244600029
0.0002724460003
0.00027244600029
0.00027244600029
0.0002724460003
0.00027244600029
0.00027244600029
0.0002724460003
0.00027244600029
0.000718177973189
0.000672678883491
0.00063006232047
0.00059014566596
0.0005527578713
0.00051773872437
0.00048493816303
0.00045421563213
0.00042543948115
0.0003984864001
0.00037324089115
0.00034959477357
0.00032744672038
0.0003067018239
0.00028727118928
0.00027244600029
0.0002724460003
0.00027244600029
0.00027244600029
0.0002724460003
0.00027244600029
0.00027244600029
0.0002724460003
0.00027244600029
0.000718177973189
0.000672678883491
0.00063006232047
0.00059014566596
0.0005527578713
0.00051773872437
0.00048493816303
0.00045421563213
0.00042543948115
0.0003984864001
0.00037324089115
0.00034959477357
0.00032744672038
0.0003067018239
0.00028727118928
0.00027244600029
0.0002724460003
0.00027244600029
0.00027244600029
0.0002724460003
0.00027244600029
0.00027244600029
0.0002724460003
0.00027244600029
0.000718177973189
0.000672678883491
0.00063006232047
0.00059014566596
0.0005527578713
0.00051773872437
0.00048493816303
0.00045421563213
0.00042543948115
0.0003984864001
0.00037324089115
0.00034959477357
0.00032744672038
0.0003067018239
0.00028727118928
0.00027244600029
0.0002724460003
0.00027244600029
0.00027244600029
0.0002724460003
0.00027244600029
0.00027244600029
0.0002724460003
0.00027244600029
0.000718177973189
0.000672678883491
0.00063006232047
0.00059014566596
0.0005527578713
0.00051773872437
0.00048493816303
0.00045421563213
0.00042543948115
0.0003984864001
0.00037324089115
0.00034959477357
0.00032744672038
0.0003067018239
0.00028727118928
0.00027244600029
0.0002724460003
0.00027244600029
0.00027244600029
0.0002724460003
0.00027244600029
0.00027244600029
0.0002724460003
0.00027244600029
0.000718177973189
0.000672678883491
0.00063006232047
0.00059014566596
0.0005527578713
0.00051773872437
0.00048493816303
0.00045421563213
0.00042543948115
0.0003984864001
0.00037324089115
0.00034959477357
0.00032744672038
0.0003067018239
0.00028727118928
0.00027244600029
0.0002724460003
0.00027244600029
0.00027244600029
0.0002724460003
0.00027244600029
0.00027244600029
0.0002724460003
0.00027244600029
0.000718177973189
0.000672678883491
0.00063006232047
0.00059014566596
0.0005527578713
0.00051773872437
0.00048493816303
0.00045421563213
0.00042543948115
0.0003984864001
0.00037324089115
0.00034959477357
0.00032744672038
0.0003067018239
0.00028727118928
0.00027244600029
0.0002724460003
0.00027244600029
0.00027244600029
0.0002724460003
0.00027244600029
0.00027244600029
0.0002724460003
0.00027244600029
0.000718177973189
0.000672678883491
0.00063006232047
0.00059014566596
0.0005527578713
0.00051773872437
0.00048493816303
0.00045421563213
0.00042543948115
0.0003984864001
0.00037324089115
0.00034959477357
0.00032744672038
0.0003067018239
0.00028727118928
0.00027244600029
0.0002724460003
0.00027244600029
0.00027244600029
0.0002724460003
0.00027244600029
0.00027244600029
0.0002724460003
0.00027244600029
0.000718177973189
0.000672678883491
0.00063006232047
0.00059014566596
0.0005527578713
0.00051773872437
0.00048493816303
0.00045421563213
0.00042543948115
0.0003984864001
0.00037324089115
0.00034959477357
0.00032744672038
0.0003067018239
0.00028727118928
0.00027244600029
0.0002724460003
0.00027244600029
0.00027244600029
0.0002724460003
0.00027244600029
0.00027244600029
0.0002724460003
0.00027244600029
0.000718177973189
0.000672678883491
0.00063006232047
0.00059014566596
0.0005527578713
0.00051773872437
0.00048493816303
0.00045421563213
0.00042543948115
0.0003984864001
0.00037324089115
0.00034959477357
0.00032744672038
0.0003067018239
0.00028727118928
0.00027244600029
0.0002724460003
0.00027244600029
0.00027244600029
0.0002724460003
0.00027244600029
0.00027244600029
0.0002724460003
0.00027244600029
0.000718177973189
0.000672678883491
0.00063006232047
0.00059014566596
0.0005527578713
0.00051773872437
0.00048493816303
0.00045421563213
0.00042543948115
0.0003984864001
0.00037324089115
0.00034959477357
0.00032744672038
0.0003067018239
0.00028727118928
0.00027244600029
0.0002724460003
0.00027244600029
0.00027244600029
0.0002724460003
0.00027244600029
0.00027244600029
0.0002724460003
0.00027244600029
0.000718177973189
0.000672678883491
0.00063006232047
0.00059014566596
0.0005527578713
0.00051773872437
0.00048493816303
0.00045421563213
0.00042543948115
0.0003984864001
0.00037324089115
0.00034959477357
0.00032744672038
0.0003067018239
0.00028727118928
0.00027244600029
0.0002724460003
0.00027244600029
0.00027244600029
0.0002724460003
0.00027244600029
0.00027244600029
0.0002724460003
0.00027244600029
0.000718177973189
0.000672678883491
0.00063006232047
0.00059014566596
0.0005527578713
0.00051773872437
0.00048493816303
0.00045421563213
0.00042543948115
0.0003984864001
0.00037324089115
0.00034959477357
0.00032744672038
0.0003067018239
0.00028727118928
0.00027244600029
0.0002724460003
0.00027244600029
0.00027244600029
0.0002724460003
0.00027244600029
0.00027244600029
0.0002724460003
0.00027244600029
0.000718177973189
0.000672678883491
0.00063006232047
0.00059014566596
0.0005527578713
0.00051773872437
0.00048493816303
0.00045421563213
0.00042543948115
0.0003984864001
0.00037324089115
0.00034959477357
0.00032744672038
0.0003067018239
0.00028727118928
0.00027244600029
0.0002724460003
0.00027244600029
0.00027244600029
0.0002724460003
0.00027244600029
0.00027244600029
0.0002724460003
0.00027244600029
0.000718177973189
0.000672678883491
0.00063006232047
0.00059014566596
0.0005527578713
0.00051773872437
0.00048493816303
0.00045421563213
0.00042543948115
0.0003984864001
0.00037324089115
0.00034959477357
0.00032744672038
0.0003067018239
0.00028727118928
0.00027244600029
0.0002724460003
0.00027244600029
0.00027244600029
0.0002724460003
0.00027244600029
0.00027244600029
0.0002724460003
0.00027244600029
0.000718177973189
0.000672678883491
0.00063006232047
0.00059014566596
0.0005527578713
0.00051773872437
0.00048493816303
0.00045421563213
0.00042543948115
0.0003984864001
0.00037324089115
0.00034959477357
0.00032744672038
0.0003067018239
0.00028727118928
0.00027244600029
0.0002724460003
0.00027244600029
0.00027244600029
0.0002724460003
0.00027244600029
0.00027244600029
0.0002724460003
0.00027244600029
0.000718177973189
0.000672678883491
0.00063006232047
0.00059014566596
0.0005527578713
0.00051773872437
0.00048493816303
0.00045421563213
0.00042543948115
0.0003984864001
0.00037324089115
0.00034959477357
0.00032744672038
0.0003067018239
0.00028727118928
0.00027244600029
0.0002724460003
0.00027244600029
0.00027244600029
0.0002724460003
0.00027244600029
0.00027244600029
0.0002724460003
0.00027244600029
0.000718177973189
0.000672678883491
0.00063006232047
0.00059014566596
0.0005527578713
0.00051773872437
0.00048493816303
0.00045421563213
0.00042543948115
0.0003984864001
0.00037324089115
0.00034959477357
0.00032744672038
0.0003067018239
0.00028727118928
0.00027244600029
0.0002724460003
0.00027244600029
0.00027244600029
0.0002724460003
0.00027244600029
0.00027244600029
0.0002724460003
0.00027244600029
0.000718177973189
0.000672678883491
0.00063006232047
0.00059014566596
0.0005527578713
0.00051773872437
0.00048493816303
0.00045421563213
0.00042543948115
0.0003984864001
0.00037324089115
0.00034959477357
0.00032744672038
0.0003067018239
0.00028727118928
0.00027244600029
0.0002724460003
0.00027244600029
0.00027244600029
0.0002724460003
0.00027244600029
0.00027244600029
0.0002724460003
0.00027244600029
0.000718177973189
0.000672678883491
0.00063006232047
0.00059014566596
0.0005527578713
0.00051773872437
0.00048493816303
0.00045421563213
0.00042543948115
0.0003984864001
0.00037324089115
0.00034959477357
0.00032744672038
0.0003067018239
0.00028727118928
0.00027244600029
0.0002724460003
0.00027244600029
0.00027244600029
0.0002724460003
0.00027244600029
0.00027244600029
0.0002724460003
0.00027244600029
0.000718177973189
0.000672678883491
0.00063006232047
0.00059014566596
0.0005527578713
0.00051773872437
0.00048493816303
0.00045421563213
0.00042543948115
0.0003984864001
0.00037324089115
0.00034959477357
0.00032744672038
0.0003067018239
0.00028727118928
0.00027244600029
0.0002724460003
0.00027244600029
0.00027244600029
0.0002724460003
0.00027244600029
0.00027244600029
0.0002724460003
0.00027244600029
0.000718177973189
0.000672678883491
0.00063006232047
0.00059014566596
0.0005527578713
0.00051773872437
0.00048493816303
0.00045421563213
0.00042543948115
0.0003984864001
0.00037324089115
0.00034959477357
0.00032744672038
0.0003067018239
0.00028727118928
0.00027244600029
0.0002724460003
0.00027244600029
0.00027244600029
0.0002724460003
0.00027244600029
0.00027244600029
0.0002724460003
0.00027244600029
0.000718177973189
0.000672678883491
0.00063006232047
0.00059014566596
0.0005527578713
0.00051773872437
0.00048493816303
0.00045421563213
0.00042543948115
0.0003984864001
0.00037324089115
0.00034959477357
0.00032744672038
0.0003067018239
0.00028727118928
0.00027244600029
0.0002724460003
0.00027244600029
0.00027244600029
0.0002724460003
0.00027244600029
0.00027244600029
0.0002724460003
0.00027244600029
0.000718177973189
0.000672678883491
0.00063006232047
0.00059014566596
0.0005527578713
0.00051773872437
0.00048493816303
0.00045421563213
0.00042543948115
0.0003984864001
0.00037324089115
0.00034959477357
0.00032744672038
0.0003067018239
0.00028727118928
0.00027244600029
0.0002724460003
0.00027244600029
0.00027244600029
0.0002724460003
0.00027244600029
0.00027244600029
0.0002724460003
0.00027244600029
0.000718177973189
0.000672678883491
0.00063006232047
0.00059014566596
0.0005527578713
0.00051773872437
0.00048493816303
0.00045421563213
0.00042543948115
0.0003984864001
0.00037324089115
0.00034959477357
0.00032744672038
0.0003067018239
0.00028727118928
0.00027244600029
0.0002724460003
0.00027244600029
0.00027244600029
0.0002724460003
0.00027244600029
0.00027244600029
0.0002724460003
0.00027244600029
0.000718177973189
0.000672678883491
0.00063006232047
0.00059014566596
0.0005527578713
0.00051773872437
0.00048493816303
0.00045421563213
0.00042543948115
0.0003984864001
0.00037324089115
0.00034959477357
0.00032744672038
0.0003067018239
0.00028727118928
0.00027244600029
0.0002724460003
0.00027244600029
0.00027244600029
0.0002724460003
0.00027244600029
0.00027244600029
0.0002724460003
0.00027244600029
0.000718177973189
0.000672678883491
0.00063006232047
0.00059014566596
0.0005527578713
0.00051773872437
0.00048493816303
0.00045421563213
0.00042543948115
0.0003984864001
0.00037324089115
0.00034959477357
0.00032744672038
0.0003067018239
0.00028727118928
0.00027244600029
0.0002724460003
0.00027244600029
0.00027244600029
0.0002724460003
0.00027244600029
0.00027244600029
0.0002724460003
0.00027244600029
0.000718177973189
0.000672678883491
0.00063006232047
0.00059014566596
0.0005527578713
0.00051773872437
0.00048493816303
0.00045421563213
0.00042543948115
0.0003984864001
0.00037324089115
0.00034959477357
0.00032744672038
0.0003067018239
0.00028727118928
0.00027244600029
0.0002724460003
0.00027244600029
0.00027244600029
0.0002724460003
0.00027244600029
0.00027244600029
0.0002724460003
0.00027244600029
0.000718177973189
0.000672678883491
0.00063006232047
0.00059014566596
0.0005527578713
0.00051773872437
0.00048493816303
0.00045421563213
0.00042543948115
0.0003984864001
0.00037324089115
0.00034959477357
0.00032744672038
0.0003067018239
0.00028727118928
0.00027244600029
0.0002724460003
0.00027244600029
0.00027244600029
0.0002724460003
0.00027244600029
0.00027244600029
0.0002724460003
0.00027244600029
0.000718177973189
0.000672678883491
0.00063006232047
0.00059014566596