/*--------------------------------*- C++ -*----------------------------------*\
| =========                 |                                                 |
| \\      /  F ield         | OpenFOAM: The Open Source CFD Toolbox           |
|  \\    /   O peration     | Version:  2112                                  |
|   \\  /    A nd           | Website:  www.openfoam.com                      |
|    \\/     M anipulation  |                                                 |
\*---------------------------------------------------------------------------*/
FoamFile
{
    version     2.0;
    format      ascii;
    arch        "LSB;label=64;scalar=64";
    class       scalarField;
    location    "constant";
    object      yDim;
}
// * * * * * * * * * * * * * * * * * * * * * * * * * * * * * * * * * * * * * //


6270
(
6.27126549711e-05
0.000121452243627
0.000176470473633
0.000228003106091
0.000276270965813
0.000321480887586
0.000363826602486
0.000403489568052
0.000440639745846
0.000475436329776
0.000508028428255
0.000538555703155
0.000567148968283
0.00059393074993
0.000619015811919
0.000642806310447
0.000666596808977
0.000690387307505
0.000714177806035
0.000737968304563
0.000761758803093
0.000785549301621
0.000809339800151
0.000833130298679
6.27126549711e-05
0.000121452243627
0.000176470473633
0.000228003106091
0.000276270965813
0.000321480887586
0.000363826602486
0.000403489568052
0.000440639745846
0.000475436329776
0.000508028428255
0.000538555703155
0.000567148968283
0.00059393074993
0.000619015811919
0.000642806310447
0.000666596808977
0.000690387307505
0.000714177806035
0.000737968304563
0.000761758803093
0.000785549301621
0.000809339800151
0.000833130298679
6.27126549711e-05
0.000121452243627
0.000176470473633
0.000228003106091
0.000276270965813
0.000321480887586
0.000363826602486
0.000403489568052
0.000440639745846
0.000475436329776
0.000508028428255
0.000538555703155
0.000567148968283
0.00059393074993
0.000619015811919
0.000642806310447
0.000666596808977
0.000690387307505
0.000714177806035
0.000737968304563
0.000761758803093
0.000785549301621
0.000809339800151
0.000833130298679
6.27126549711e-05
0.000121452243627
0.000176470473633
0.000228003106091
0.000276270965813
0.000321480887586
0.000363826602486
0.000403489568052
0.000440639745846
0.000475436329776
0.000508028428255
0.000538555703155
0.000567148968283
0.00059393074993
0.000619015811919
0.000642806310447
0.000666596808977
0.000690387307505
0.000714177806035
0.000737968304563
0.000761758803093
0.000785549301621
0.000809339800151
0.000833130298679
6.27126549711e-05
0.000121452243627
0.000176470473633
0.000228003106091
0.000276270965813
0.000321480887586
0.000363826602486
0.000403489568052
0.000440639745846
0.000475436329776
0.000508028428255
0.000538555703155
0.000567148968283
0.00059393074993
0.000619015811919
0.000642806310447
0.000666596808977
0.000690387307505
0.000714177806035
0.000737968304563
0.000761758803093
0.000785549301621
0.000809339800151
0.000833130298679
6.27126549711e-05
0.000121452243627
0.000176470473633
0.000228003106091
0.000276270965813
0.000321480887586
0.000363826602486
0.000403489568052
0.000440639745846
0.000475436329776
0.000508028428255
0.000538555703155
0.000567148968283
0.00059393074993
0.000619015811919
0.000642806310447
0.000666596808977
0.000690387307505
0.000714177806035
0.000737968304563
0.000761758803093
0.000785549301621
0.000809339800151
0.000833130298679
6.27126549711e-05
0.000121452243627
0.000176470473633
0.000228003106091
0.000276270965813
0.000321480887586
0.000363826602486
0.000403489568052
0.000440639745846
0.000475436329776
0.000508028428255
0.000538555703155
0.000567148968283
0.00059393074993
0.000619015811919
0.000642806310447
0.000666596808977
0.000690387307505
0.000714177806035
0.000737968304563
0.000761758803093
0.000785549301621
0.000809339800151
0.000833130298679
6.27126549711e-05
0.000121452243627
0.000176470473633
0.000228003106091
0.000276270965813
0.000321480887586
0.000363826602486
0.000403489568052
0.000440639745846
0.000475436329776
0.000508028428255
0.000538555703155
0.000567148968283
0.00059393074993
0.000619015811919
0.000642806310447
0.000666596808977
0.000690387307505
0.000714177806035
0.000737968304563
0.000761758803093
0.000785549301621
0.000809339800151
0.000833130298679
6.27126549711e-05
0.000121452243627
0.000176470473633
0.000228003106091
0.000276270965813
0.000321480887586
0.000363826602486
0.000403489568052
0.000440639745846
0.000475436329776
0.000508028428255
0.000538555703155
0.000567148968283
0.00059393074993
0.000619015811919
0.000642806310447
0.000666596808977
0.000690387307505
0.000714177806035
0.000737968304563
0.000761758803093
0.000785549301621
0.000809339800151
0.000833130298679
6.27126549711e-05
0.000121452243627
0.000176470473633
0.000228003106091
0.000276270965813
0.000321480887586
0.000363826602486
0.000403489568052
0.000440639745846
0.000475436329776
0.000508028428255
0.000538555703155
0.000567148968283
0.00059393074993
0.000619015811919
0.000642806310447
0.000666596808977
0.000690387307505
0.000714177806035
0.000737968304563
0.000761758803093
0.000785549301621
0.000809339800151
0.000833130298679
6.27126549711e-05
0.000121452243627
0.000176470473633
0.000228003106091
0.000276270965813
0.000321480887586
0.000363826602486
0.000403489568052
0.000440639745846
0.000475436329776
0.000508028428255
0.000538555703155
0.000567148968283
0.00059393074993
0.000619015811919
0.000642806310447
0.000666596808977
0.000690387307505
0.000714177806035
0.000737968304563
0.000761758803093
0.000785549301621
0.000809339800151
0.000833130298679
6.27126549711e-05
0.000121452243627
0.000176470473633
0.000228003106091
0.000276270965813
0.000321480887586
0.000363826602486
0.000403489568052
0.000440639745846
0.000475436329776
0.000508028428255
0.000538555703155
0.000567148968283
0.00059393074993
0.000619015811919
0.000642806310447
0.000666596808977
0.000690387307505
0.000714177806035
0.000737968304563
0.000761758803093
0.000785549301621
0.000809339800151
0.000833130298679
6.27126549711e-05
0.000121452243627
0.000176470473633
0.000228003106091
0.000276270965813
0.000321480887586
0.000363826602486
0.000403489568052
0.000440639745846
0.000475436329776
0.000508028428255
0.000538555703155
0.000567148968283
0.00059393074993
0.000619015811919
0.000642806310447
0.000666596808977
0.000690387307505
0.000714177806035
0.000737968304563
0.000761758803093
0.000785549301621
0.000809339800151
0.000833130298679
6.27126549711e-05
0.000121452243627
0.000176470473633
0.000228003106091
0.000276270965813
0.000321480887586
0.000363826602486
0.000403489568052
0.000440639745846
0.000475436329776
0.000508028428255
0.000538555703155
0.000567148968283
0.00059393074993
0.000619015811919
0.000642806310447
0.000666596808977
0.000690387307505
0.000714177806035
0.000737968304563
0.000761758803093
0.000785549301621
0.000809339800151
0.000833130298679
6.27126549711e-05
0.000121452243627
0.000176470473633
0.000228003106091
0.000276270965813
0.000321480887586
0.000363826602486
0.000403489568052
0.000440639745846
0.000475436329776
0.000508028428255
0.000538555703155
0.000567148968283
0.00059393074993
0.000619015811919
0.000642806310447
0.000666596808977
0.000690387307505
0.000714177806035
0.000737968304563
0.000761758803093
0.000785549301621
0.000809339800151
0.000833130298679
6.27126549711e-05
0.000121452243627
0.000176470473633
0.000228003106091
0.000276270965813
0.000321480887586
0.000363826602486
0.000403489568052
0.000440639745846
0.000475436329776
0.000508028428255
0.000538555703155
0.000567148968283
0.00059393074993
0.000619015811919
0.000642806310447
0.000666596808977
0.000690387307505
0.000714177806035
0.000737968304563
0.000761758803093
0.000785549301621
0.000809339800151
0.000833130298679
6.27126549711e-05
0.000121452243627
0.000176470473633
0.000228003106091
0.000276270965813
0.000321480887586
0.000363826602486
0.000403489568052
0.000440639745846
0.000475436329776
0.000508028428255
0.000538555703155
0.000567148968283
0.00059393074993
0.000619015811919
0.000642806310447
0.000666596808977
0.000690387307505
0.000714177806035
0.000737968304563
0.000761758803093
0.000785549301621
0.000809339800151
0.000833130298679
6.27126549711e-05
0.000121452243627
0.000176470473633
0.000228003106091
0.000276270965813
0.000321480887586
0.000363826602486
0.000403489568052
0.000440639745846
0.000475436329776
0.000508028428255
0.000538555703155
0.000567148968283
0.00059393074993
0.000619015811919
0.000642806310447
0.000666596808977
0.000690387307505
0.000714177806035
0.000737968304563
0.000761758803093
0.000785549301621
0.000809339800151
0.000833130298679
6.27126549711e-05
0.000121452243627
0.000176470473633
0.000228003106091
0.000276270965813
0.000321480887586
0.000363826602486
0.000403489568052
0.000440639745846
0.000475436329776
0.000508028428255
0.000538555703155
0.000567148968283
0.00059393074993
0.000619015811919
0.000642806310447
0.000666596808977
0.000690387307505
0.000714177806035
0.000737968304563
0.000761758803093
0.000785549301621
0.000809339800151
0.000833130298679
6.27126549711e-05
0.000121452243627
0.000176470473633
0.000228003106091
0.000276270965813
0.000321480887586
0.000363826602486
0.000403489568052
0.000440639745846
0.000475436329776
0.000508028428255
0.000538555703155
0.000567148968283
0.00059393074993
0.000619015811919
0.000642806310447
0.000666596808977
0.000690387307505
0.000714177806035
0.000737968304563
0.000761758803093
0.000785549301621
0.000809339800151
0.000833130298679
6.27126549711e-05
0.000121452243627
0.000176470473633
0.000228003106091
0.000276270965813
0.000321480887586
0.000363826602486
0.000403489568052
0.000440639745846
0.000475436329776
0.000508028428255
0.000538555703155
0.000567148968283
0.00059393074993
0.000619015811919
0.000642806310447
0.000666596808977
0.000690387307505
0.000714177806035
0.000737968304563
0.000761758803093
0.000785549301621
0.000809339800151
0.000833130298679
6.27126549711e-05
0.000121452243627
0.000176470473633
0.000228003106091
0.000276270965813
0.000321480887586
0.000363826602486
0.000403489568052
0.000440639745846
0.000475436329776
0.000508028428255
0.000538555703155
0.000567148968283
0.00059393074993
0.000619015811919
0.000642806310447
0.000666596808977
0.000690387307505
0.000714177806035
0.000737968304563
0.000761758803093
0.000785549301621
0.000809339800151
0.000833130298679
6.27126549711e-05
0.000121452243627
0.000176470473633
0.000228003106091
0.000276270965813
0.000321480887586
0.000363826602486
0.000403489568052
0.000440639745846
0.000475436329776
0.000508028428255
0.000538555703155
0.000567148968283
0.00059393074993
0.000619015811919
0.000642806310447
0.000666596808977
0.000690387307505
0.000714177806035
0.000737968304563
0.000761758803093
0.000785549301621
0.000809339800151
0.000833130298679
6.27126549711e-05
0.000121452243627
0.000176470473633
0.000228003106091
0.000276270965813
0.000321480887586
0.000363826602486
0.000403489568052
0.000440639745846
0.000475436329776
0.000508028428255
0.000538555703155
0.000567148968283
0.00059393074993
0.000619015811919
0.000642806310447
0.000666596808977
0.000690387307505
0.000714177806035
0.000737968304563
0.000761758803093
0.000785549301621
0.000809339800151
0.000833130298679
6.27126549711e-05
0.000121452243627
0.000176470473633
0.000228003106091
0.000276270965813
0.000321480887586
0.000363826602486
0.000403489568052
0.000440639745846
0.000475436329776
0.000508028428255
0.000538555703155
0.000567148968283
0.00059393074993
0.000619015811919
0.000642806310447
0.000666596808977
0.000690387307505
0.000714177806035
0.000737968304563
0.000761758803093
0.000785549301621
0.000809339800151
0.000833130298679
6.27126549711e-05
0.000121452243627
0.000176470473633
0.000228003106091
0.000276270965813
0.000321480887586
0.000363826602486
0.000403489568052
0.000440639745846
0.000475436329776
0.000508028428255
0.000538555703155
0.000567148968283
0.00059393074993
0.000619015811919
0.000642806310447
0.000666596808977
0.000690387307505
0.000714177806035
0.000737968304563
0.000761758803093
0.000785549301621
0.000809339800151
0.000833130298679
6.27126549711e-05
0.000121452243627
0.000176470473633
0.000228003106091
0.000276270965813
0.000321480887586
0.000363826602486
0.000403489568052
0.000440639745846
0.000475436329776
0.000508028428255
0.000538555703155
0.000567148968283
0.00059393074993
0.000619015811919
0.000642806310447
0.000666596808977
0.000690387307505
0.000714177806035
0.000737968304563
0.000761758803093
0.000785549301621
0.000809339800151
0.000833130298679
6.27126549711e-05
0.000121452243627
0.000176470473633
0.000228003106091
0.000276270965813
0.000321480887586
0.000363826602486
0.000403489568052
0.000440639745846
0.000475436329776
0.000508028428255
0.000538555703155
0.000567148968283
0.00059393074993
0.000619015811919
0.000642806310447
0.000666596808977
0.000690387307505
0.000714177806035
0.000737968304563
0.000761758803093
0.000785549301621
0.000809339800151
0.000833130298679
6.27126549711e-05
0.000121452243627
0.000176470473633
0.000228003106091
0.000276270965813
0.000321480887586
0.000363826602486
0.000403489568052
0.000440639745846
0.000475436329776
0.000508028428255
0.000538555703155
0.000567148968283
0.00059393074993
0.000619015811919
0.000642806310447
0.000666596808977
0.000690387307505
0.000714177806035
0.000737968304563
0.000761758803093
0.000785549301621
0.000809339800151
0.000833130298679
6.27126549711e-05
0.000121452243627
0.000176470473633
0.000228003106091
0.000276270965813
0.000321480887586
0.000363826602486
0.000403489568052
0.000440639745846
0.000475436329776
0.000508028428255
0.000538555703155
0.000567148968283
0.00059393074993
0.000619015811919
0.000642806310447
0.000666596808977
0.000690387307505
0.000714177806035
0.000737968304563
0.000761758803093
0.000785549301621
0.000809339800151
0.000833130298679
6.27126549711e-05
0.000121452243627
0.000176470473633
0.000228003106091
0.000276270965813
0.000321480887586
0.000363826602486
0.000403489568052
0.000440639745846
0.000475436329776
0.000508028428255
0.000538555703155
0.000567148968283
0.00059393074993
0.000619015811919
0.000642806310447
0.000666596808977
0.000690387307505
0.000714177806035
0.000737968304563
0.000761758803093
0.000785549301621
0.000809339800151
0.000833130298679
6.27126549711e-05
0.000121452243627
0.000176470473633
0.000228003106091
0.000276270965813
0.000321480887586
0.000363826602486
0.000403489568052
0.000440639745846
0.000475436329776
0.000508028428255
0.000538555703155
0.000567148968283
0.00059393074993
0.000619015811919
0.000642806310447
0.000666596808977
0.000690387307505
0.000714177806035
0.000737968304563
0.000761758803093
0.000785549301621
0.000809339800151
0.000833130298679
6.27126549711e-05
0.000121452243627
0.000176470473633
0.000228003106091
0.000276270965813
0.000321480887586
0.000363826602486
0.000403489568052
0.000440639745846
0.000475436329776
0.000508028428255
0.000538555703155
0.000567148968283
0.00059393074993
0.000619015811919
0.000642806310447
0.000666596808977
0.000690387307505
0.000714177806035
0.000737968304563
0.000761758803093
0.000785549301621
0.000809339800151
0.000833130298679
6.27126549711e-05
0.000121452243627
0.000176470473633
0.000228003106091
0.000276270965813
0.000321480887586
0.000363826602486
0.000403489568052
0.000440639745846
0.000475436329776
0.000508028428255
0.000538555703155
0.000567148968283
0.00059393074993
0.000619015811919
0.000642806310447
0.000666596808977
0.000690387307505
0.000714177806035
0.000737968304563
0.000761758803093
0.000785549301621
0.000809339800151
0.000833130298679
6.27126549711e-05
0.000121452243627
0.000176470473633
0.000228003106091
0.000276270965813
0.000321480887586
0.000363826602486
0.000403489568052
0.000440639745846
0.000475436329776
0.000508028428255
0.000538555703155
0.000567148968283
0.00059393074993
0.000619015811919
0.000642806310447
0.000666596808977
0.000690387307505
0.000714177806035
0.000737968304563
0.000761758803093
0.000785549301621
0.000809339800151
0.000833130298679
6.27126549711e-05
0.000121452243627
0.000176470473633
0.000228003106091
0.000276270965813
0.000321480887586
0.000363826602486
0.000403489568052
0.000440639745846
0.000475436329776
0.000508028428255
0.000538555703155
0.000567148968283
0.00059393074993
0.000619015811919
0.000642806310447
0.000666596808977
0.000690387307505
0.000714177806035
0.000737968304563
0.000761758803093
0.000785549301621
0.000809339800151
0.000833130298679
6.27126549711e-05
0.000121452243627
0.000176470473633
0.000228003106091
0.000276270965813
0.000321480887586
0.000363826602486
0.000403489568052
0.000440639745846
0.000475436329776
0.000508028428255
0.000538555703155
0.000567148968283
0.00059393074993
0.000619015811919
0.000642806310447
0.000666596808977
0.000690387307505
0.000714177806035
0.000737968304563
0.000761758803093
0.000785549301621
0.000809339800151
0.000833130298679
6.27126549711e-05
0.000121452243627
0.000176470473633
0.000228003106091
0.000276270965813
0.000321480887586
0.000363826602486
0.000403489568052
0.000440639745846
0.000475436329776
0.000508028428255
0.000538555703155
0.000567148968283
0.00059393074993
0.000619015811919
0.000642806310447
0.000666596808977
0.000690387307505
0.000714177806035
0.000737968304563
0.000761758803093
0.000785549301621
0.000809339800151
0.000833130298679
6.27126549711e-05
0.000121452243627
0.000176470473633
0.000228003106091
0.000276270965813
0.000321480887586
0.000363826602486
0.000403489568052
0.000440639745846
0.000475436329776
0.000508028428255
0.000538555703155
0.000567148968283
0.00059393074993
0.000619015811919
0.000642806310447
0.000666596808977
0.000690387307505
0.000714177806035
0.000737968304563
0.000761758803093
0.000785549301621
0.000809339800151
0.000833130298679
6.27126549711e-05
0.000121452243627
0.000176470473633
0.000228003106091
0.000276270965813
0.000321480887586
0.000363826602486
0.000403489568052
0.000440639745846
0.000475436329776
0.000508028428255
0.000538555703155
0.000567148968283
0.00059393074993
0.000619015811919
0.000642806310447
0.000666596808977
0.000690387307505
0.000714177806035
0.000737968304563
0.000761758803093
0.000785549301621
0.000809339800151
0.000833130298679
6.27126549711e-05
0.000121452243627
0.000176470473633
0.000228003106091
0.000276270965813
0.000321480887586
0.000363826602486
0.000403489568052
0.000440639745846
0.000475436329776
0.000508028428255
0.000538555703155
0.000567148968283
0.00059393074993
0.000619015811919
0.000642806310447
0.000666596808977
0.000690387307505
0.000714177806035
0.000737968304563
0.000761758803093
0.000785549301621
0.000809339800151
0.000833130298679
6.27126549711e-05
0.000121452243627
0.000176470473633
0.000228003106091
0.000276270965813
0.000321480887586
0.000363826602486
0.000403489568052
0.000440639745846
0.000475436329776
0.000508028428255
0.000538555703155
0.000567148968283
0.00059393074993
0.000619015811919
0.000642806310447
0.000666596808977
0.000690387307505
0.000714177806035
0.000737968304563
0.000761758803093
0.000785549301621
0.000809339800151
0.000833130298679
6.27126549711e-05
0.000121452243627
0.000176470473633
0.000228003106091
0.000276270965813
0.000321480887586
0.000363826602486
0.000403489568052
0.000440639745846
0.000475436329776
0.000508028428255
0.000538555703155
0.000567148968283
0.00059393074993
0.000619015811919
0.000642806310447
0.000666596808977
0.000690387307505
0.000714177806035
0.000737968304563
0.000761758803093
0.000785549301621
0.000809339800151
0.000833130298679
6.27126549711e-05
0.000121452243627
0.000176470473633
0.000228003106091
0.000276270965813
0.000321480887586
0.000363826602486
0.000403489568052
0.000440639745846
0.000475436329776
0.000508028428255
0.000538555703155
0.000567148968283
0.00059393074993
0.000619015811919
0.000642806310447
0.000666596808977
0.000690387307505
0.000714177806035
0.000737968304563
0.000761758803093
0.000785549301621
0.000809339800151
0.000833130298679
6.27126549711e-05
0.000121452243627
0.000176470473633
0.000228003106091
0.000276270965813
0.000321480887586
0.000363826602486
0.000403489568052
0.000440639745846
0.000475436329776
0.000508028428255
0.000538555703155
0.000567148968283
0.00059393074993
0.000619015811919
0.000642806310447
0.000666596808977
0.000690387307505
0.000714177806035
0.000737968304563
0.000761758803093
0.000785549301621
0.000809339800151
0.000833130298679
6.27126549711e-05
0.000121452243627
0.000176470473633
0.000228003106091
0.000276270965813
0.000321480887586
0.000363826602486
0.000403489568052
0.000440639745846
0.000475436329776
0.000508028428255
0.000538555703155
0.000567148968283
0.00059393074993
0.000619015811919
0.000642806310447
0.000666596808977
0.000690387307505
0.000714177806035
0.000737968304563
0.000761758803093
0.000785549301621
0.000809339800151
0.000833130298679
6.27126549711e-05
0.000121452243627
0.000176470473633
0.000228003106091
0.000276270965813
0.000321480887586
0.000363826602486
0.000403489568052
0.000440639745846
0.000475436329776
0.000508028428255
0.000538555703155
0.000567148968283
0.00059393074993
0.000619015811919
0.000642806310447
0.000666596808977
0.000690387307505
0.000714177806035
0.000737968304563
0.000761758803093
0.000785549301621
0.000809339800151
0.000833130298679
6.27126549711e-05
0.000121452243627
0.000176470473633
0.000228003106091
0.000276270965813
0.000321480887586
0.000363826602486
0.000403489568052
0.000440639745846
0.000475436329776
0.000508028428255
0.000538555703155
0.000567148968283
0.00059393074993
0.000619015811919
0.000642806310447
0.000666596808977
0.000690387307505
0.000714177806035
0.000737968304563
0.000761758803093
0.000785549301621
0.000809339800151
0.000833130298679
6.27126549711e-05
0.000121452243627
0.000176470473633
0.000228003106091
0.000276270965813
0.000321480887586
0.000363826602486
0.000403489568052
0.000440639745846
0.000475436329776
0.000508028428255
0.000538555703155
0.000567148968283
0.00059393074993
0.000619015811919
0.000642806310447
0.000666596808977
0.000690387307505
0.000714177806035
0.000737968304563
0.000761758803093
0.000785549301621
0.000809339800151
0.000833130298679
6.27126549711e-05
0.000121452243627
0.000176470473633
0.000228003106091
0.000276270965813
0.000321480887586
0.000363826602486
0.000403489568052
0.000440639745846
0.000475436329776
0.000508028428255
0.000538555703155
0.000567148968283
0.00059393074993
0.000619015811919
0.000642806310447
0.000666596808977
0.000690387307505
0.000714177806035
0.000737968304563
0.000761758803093
0.000785549301621
0.000809339800151
0.000833130298679
6.27126549711e-05
0.000121452243627
0.000176470473633
0.000228003106091
0.000276270965813
0.000321480887586
0.000363826602486
0.000403489568052
0.000440639745846
0.000475436329776
0.000508028428255
0.000538555703155
0.000567148968283
0.00059393074993
0.000619015811919
0.000642806310447
0.000666596808977
0.000690387307505
0.000714177806035
0.000737968304563
0.000761758803093
0.000785549301621
0.000809339800151
0.000833130298679
6.27126549711e-05
0.000121452243627
0.000176470473633
0.000228003106091
0.000276270965813
0.000321480887586
0.000363826602486
0.000403489568052
0.000440639745846
0.000475436329776
0.000508028428255
0.000538555703155
0.000567148968283
0.00059393074993
0.000619015811919
0.000642806310447
0.000666596808977
0.000690387307505
0.000714177806035
0.000737968304563
0.000761758803093
0.000785549301621
0.000809339800151
0.000833130298679
6.27126549711e-05
0.000121452243627
0.000176470473633
0.000228003106091
0.000276270965813
0.000321480887586
0.000363826602486
0.000403489568052
0.000440639745846
0.000475436329776
0.000508028428255
0.000538555703155
0.000567148968283
0.00059393074993
0.000619015811919
0.000642806310447
0.000666596808977
0.000690387307505
0.000714177806035
0.000737968304563
0.000761758803093
0.000785549301621
0.000809339800151
0.000833130298679
6.27126549711e-05
0.000121452243627
0.000176470473633
0.000228003106091
0.000276270965813
0.000321480887586
0.000363826602486
0.000403489568052
0.000440639745846
0.000475436329776
0.000508028428255
0.000538555703155
0.000567148968283
0.00059393074993
0.000619015811919
0.000642806310447
0.000666596808977
0.000690387307505
0.000714177806035
0.000737968304563
0.000761758803093
0.000785549301621
0.000809339800151
0.000833130298679
6.27126549711e-05
0.000121452243627
0.000176470473633
0.000228003106091
0.000276270965813
0.000321480887586
0.000363826602486
0.000403489568052
0.000440639745846
0.000475436329776
0.000508028428255
0.000538555703155
0.000567148968283
0.00059393074993
0.000619015811919
0.000642806310447
0.000666596808977
0.000690387307505
0.000714177806035
0.000737968304563
0.000761758803093
0.000785549301621
0.000809339800151
0.000833130298679
6.27126549711e-05
0.000121452243627
0.000176470473633
0.000228003106091
0.000276270965813
0.000321480887586
0.000363826602486
0.000403489568052
0.000440639745846
0.000475436329776
0.000508028428255
0.000538555703155
0.000567148968283
0.00059393074993
0.000619015811919
0.000642806310447
0.000666596808977
0.000690387307505
0.000714177806035
0.000737968304563
0.000761758803093
0.000785549301621
0.000809339800151
0.000833130298679
6.27126549711e-05
0.000121452243627
0.000176470473633
0.000228003106091
0.000276270965813
0.000321480887586
0.000363826602486
0.000403489568052
0.000440639745846
0.000475436329776
0.000508028428255
0.000538555703155
0.000567148968283
0.00059393074993
0.000619015811919
0.000642806310447
0.000666596808977
0.000690387307505
0.000714177806035
0.000737968304563
0.000761758803093
0.000785549301621
0.000809339800151
0.000833130298679
6.27126549711e-05
0.000121452243627
0.000176470473633
0.000228003106091
0.000276270965813
0.000321480887586
0.000363826602486
0.000403489568052
0.000440639745846
0.000475436329776
0.000508028428255
0.000538555703155
0.000567148968283
0.00059393074993
0.000619015811919
0.000642806310447
0.000666596808977
0.000690387307505
0.000714177806035
0.000737968304563
0.000761758803093
0.000785549301621
0.000809339800151
0.000833130298679
6.27126549711e-05
0.000121452243627
0.000176470473633
0.000228003106091
0.000276270965813
0.000321480887586
0.000363826602486
0.000403489568052
0.000440639745846
0.000475436329776
0.000508028428255
0.000538555703155
0.000567148968283
0.00059393074993
0.000619015811919
0.000642806310447
0.000666596808977
0.000690387307505
0.000714177806035
0.000737968304563
0.000761758803093
0.000785549301621
0.000809339800151
0.000833130298679
6.27126549711e-05
0.000121452243627
0.000176470473633
0.000228003106091
0.000276270965813
0.000321480887586
0.000363826602486
0.000403489568052
0.000440639745846
0.000475436329776
0.000508028428255
0.000538555703155
0.000567148968283
0.00059393074993
0.000619015811919
0.000642806310447
0.000666596808977
0.000690387307505
0.000714177806035
0.000737968304563
0.000761758803093
0.000785549301621
0.000809339800151
0.000833130298679
6.27126549711e-05
0.000121452243627
0.000176470473633
0.000228003106091
0.000276270965813
0.000321480887586
0.000363826602486
0.000403489568052
0.000440639745846
0.000475436329776
0.000508028428255
0.000538555703155
0.000567148968283
0.00059393074993
0.000619015811919
0.000642806310447
0.000666596808977
0.000690387307505
0.000714177806035
0.000737968304563
0.000761758803093
0.000785549301621
0.000809339800151
0.000833130298679
6.27126549711e-05
0.000121452243627
0.000176470473633
0.000228003106091
0.000276270965813
0.000321480887586
0.000363826602486
0.000403489568052
0.000440639745846
0.000475436329776
0.000508028428255
0.000538555703155
0.000567148968283
0.00059393074993
0.000619015811919
0.000642806310447
0.000666596808977
0.000690387307505
0.000714177806035
0.000737968304563
0.000761758803093
0.000785549301621
0.000809339800151
0.000833130298679
6.27126549711e-05
0.000121452243627
0.000176470473633
0.000228003106091
0.000276270965813
0.000321480887586
0.000363826602486
0.000403489568052
0.000440639745846
0.000475436329776
0.000508028428255
0.000538555703155
0.000567148968283
0.00059393074993
0.000619015811919
0.000642806310447
0.000666596808977
0.000690387307505
0.000714177806035
0.000737968304563
0.000761758803093
0.000785549301621
0.000809339800151
0.000833130298679
6.27126549711e-05
0.000121452243627
0.000176470473633
0.000228003106091
0.000276270965813
0.000321480887586
0.000363826602486
0.000403489568052
0.000440639745846
0.000475436329776
0.000508028428255
0.000538555703155
0.000567148968283
0.00059393074993
0.000619015811919
0.000642806310447
0.000666596808977
0.000690387307505
0.000714177806035
0.000737968304563
0.000761758803093
0.000785549301621
0.000809339800151
0.000833130298679
6.27126549711e-05
0.000121452243627
0.000176470473633
0.000228003106091
0.000276270965813
0.000321480887586
0.000363826602486
0.000403489568052
0.000440639745846
0.000475436329776
0.000508028428255
0.000538555703155
0.000567148968283
0.00059393074993
0.000619015811919
0.000642806310447
0.000666596808977
0.000690387307505
0.000714177806035
0.000737968304563
0.000761758803093
0.000785549301621
0.000809339800151
0.000833130298679
6.27126549711e-05
0.000121452243627
0.000176470473633
0.000228003106091
0.000276270965813
0.000321480887586
0.000363826602486
0.000403489568052
0.000440639745846
0.000475436329776
0.000508028428255
0.000538555703155
0.000567148968283
0.00059393074993
0.000619015811919
0.000642806310447
0.000666596808977
0.000690387307505
0.000714177806035
0.000737968304563
0.000761758803093
0.000785549301621
0.000809339800151
0.000833130298679
6.27126549711e-05
0.000121452243627
0.000176470473633
0.000228003106091
0.000276270965813
0.000321480887586
0.000363826602486
0.000403489568052
0.000440639745846
0.000475436329776
0.000508028428255
0.000538555703155
0.000567148968283
0.00059393074993
0.000619015811919
0.000642806310447
0.000666596808977
0.000690387307505
0.000714177806035
0.000737968304563
0.000761758803093
0.000785549301621
0.000809339800151
0.000833130298679
6.27126549711e-05
0.000121452243627
0.000176470473633
0.000228003106091
0.000276270965813
0.000321480887586
0.000363826602486
0.000403489568052
0.000440639745846
0.000475436329776
0.000508028428255
0.000538555703155
0.000567148968283
0.00059393074993
0.000619015811919
0.000642806310447