/*--------------------------------*- C++ -*----------------------------------*\
| =========                 |                                                 |
| \\      /  F ield         | OpenFOAM: The Open Source CFD Toolbox           |
|  \\    /   O peration     | Version:  2112                                  |
|   \\  /    A nd           | Website:  www.openfoam.com                      |
|    \\/     M anipulation  |                                                 |
\*---------------------------------------------------------------------------*/
FoamFile
{
    version     2.0;
    format      ascii;
    arch        "LSB;label=64;scalar=64";
    class       scalarField;
    location    "constant";
    object      zDim;
}
// * * * * * * * * * * * * * * * * * * * * * * * * * * * * * * * * * * * * * //


6270
(
0.00127
0.00127
0.00127
0.00127
0.00127
0.00127
0.00127
0.00127
0.00127
0.00127
0.00127
0.00127
0.00127
0.00127
0.00127
0.00127
0.00127
0.00127
0.00127
0.00127
0.00127
0.00127
0.00127
0.00127
0.00127
0.00127
0.00127
0.00127
0.00127
0.00127
0.00127
0.00127
0.00127
0.00127
0.00127
0.00127
0.00127
0.00127
0.00127
0.00127
0.00127
0.00127
0.00127
0.00127
0.00127
0.00127
0.00127
0.00127
0.00127
0.00127
0.00127
0.00127
0.00127
0.00127
0.00127
0.00127
0.00127
0.00127
0.00127
0.00127
0.00127
0.00127
0.00127
0.00127
0.00127
0.00127
0.00127
0.00127
0.00127
0.00127
0.00127
0.00127
0.00127
0.00127
0.00127
0.00127
0.00127
0.00127
0.00127
0.00127
0.00127
0.00127
0.00127
0.00127
0.00127
0.00127
0.00127
0.00127
0.00127
0.00127
0.00127
0.00127
0.00127
0.00127
0.00127
0.00127
0.00127
0.00127
0.00127
0.00127
0.00127
0.00127
0.00127
0.00127
0.00127
0.00127
0.00127
0.00127
0.00127
0.00127
0.00127
0.00127
0.00127
0.00127
0.00127
0.00127
0.00127
0.00127
0.00127
0.00127
0.00127
0.00127
0.00127
0.00127
0.00127
0.00127
0.00127
0.00127
0.00127
0.00127
0.00127
0.00127
0.00127
0.00127
0.00127
0.00127
0.00127
0.00127
0.00127
0.00127
0.00127
0.00127
0.00127
0.00127
0.00127
0.00127
0.00127
0.00127
0.00127
0.00127
0.00127
0.00127
0.00127
0.00127
0.00127
0.00127
0.00127
0.00127
0.00127
0.00127
0.00127
0.00127
0.00127
0.00127
0.00127
0.00127
0.00127
0.00127
0.00127
0.00127
0.00127
0.00127
0.00127
0.00127
0.00127
0.00127
0.00127
0.00127
0.00127
0.00127
0.00127
0.00127
0.00127
0.00127
0.00127
0.00127
0.00127
0.00127
0.00127
0.00127
0.00127
0.00127
0.00127
0.00127
0.00127
0.00127
0.00127
0.00127
0.00127
0.00127
0.00127
0.00127
0.00127
0.00127
0.00127
0.00127
0.00127
0.00127
0.00127
0.00127
0.00127
0.00127
0.00127
0.00127
0.00127
0.00127
0.00127
0.00127
0.00127
0.00127
0.00127
0.00127
0.00127
0.00127
0.00127
0.00127
0.00127
0.00127
0.00127
0.00127
0.00127
0.00127
0.00127
0.00127
0.00127
0.00127
0.00127
0.00127
0.00127
0.00127
0.00127
0.00127
0.00127
0.00127
0.00127
0.00127
0.00127
0.00127
0.00127
0.00127
0.00127
0.00127
0.00127
0.00127
0.00127
0.00127
0.00127
0.00127
0.00127
0.00127
0.00127
0.00127
0.00127
0.00127
0.00127
0.00127
0.00127
0.00127
0.00127
0.00127
0.00127
0.00127
0.00127
0.00127
0.00127
0.00127
0.00127
0.00127
0.00127
0.00127
0.00127
0.00127
0.00127
0.00127
0.00127
0.00127
0.00127
0.00127
0.00127
0.00127
0.00127
0.00127
0.00127
0.00127
0.00127
0.00127
0.00127
0.00127
0.00127
0.00127
0.00127
0.00127
0.00127
0.00127
0.00127
0.00127
0.00127
0.00127
0.00127
0.00127
0.00127
0.00127
0.00127
0.00127
0.00127
0.00127
0.00127
0.00127
0.00127
0.00127
0.00127
0.00127
0.00127
0.00127
0.00127
0.00127
0.00127
0.00127
0.00127
0.00127
0.00127
0.00127
0.00127
0.00127
0.00127
0.00127
0.00127
0.00127
0.00127
0.00127
0.00127
0.00127
0.00127
0.00127
0.00127
0.00127
0.00127
0.00127
0.00127
0.00127
0.00127
0.00127
0.00127
0.00127
0.00127
0.00127
0.00127
0.00127
0.00127
0.00127
0.00127
0.00127
0.00127
0.00127
0.00127
0.00127
0.00127
0.00127
0.00127
0.00127
0.00127
0.00127
0.00127
0.00127
0.00127
0.00127
0.00127
0.00127
0.00127
0.00127
0.00127
0.00127
0.00127
0.00127
0.00127
0.00127
0.00127
0.00127
0.00127
0.00127
0.00127
0.00127
0.00127
0.00127
0.00127
0.00127
0.00127
0.00127
0.00127
0.00127
0.00127
0.00127
0.00127
0.00127
0.00127
0.00127
0.00127
0.00127
0.00127
0.00127
0.00127
0.00127
0.00127
0.00127
0.00127
0.00127
0.00127
0.00127
0.00127
0.00127
0.00127
0.00127
0.00127
0.00127
0.00127
0.00127
0.00127
0.00127
0.00127
0.00127
0.00127
0.00127
0.00127
0.00127
0.00127
0.00127
0.00127
0.00127
0.00127
0.00127
0.00127
0.00127
0.00127
0.00127
0.00127
0.00127
0.00127
0.00127
0.00127
0.00127
0.00127
0.00127
0.00127
0.00127
0.00127
0.00127
0.00127
0.00127
0.00127
0.00127
0.00127
0.00127
0.00127
0.00127
0.00127
0.00127
0.00127
0.00127
0.00127
0.00127
0.00127
0.00127
0.00127
0.00127
0.00127
0.00127
0.00127
0.00127
0.00127
0.00127
0.00127
0.00127
0.00127
0.00127
0.00127
0.00127
0.00127
0.00127
0.00127
0.00127
0.00127
0.00127
0.00127
0.00127
0.00127
0.00127
0.00127
0.00127
0.00127
0.00127
0.00127
0.00127
0.00127
0.00127
0.00127
0.00127
0.00127
0.00127
0.00127
0.00127
0.00127
0.00127
0.00127
0.00127
0.00127
0.00127
0.00127
0.00127
0.00127
0.00127
0.00127
0.00127
0.00127
0.00127
0.00127
0.00127
0.00127
0.00127
0.00127
0.00127
0.00127
0.00127
0.00127
0.00127
0.00127
0.00127
0.00127
0.00127
0.00127
0.00127
0.00127
0.00127
0.00127
0.00127
0.00127
0.00127
0.00127
0.00127
0.00127
0.00127
0.00127
0.00127
0.00127
0.00127
0.00127
0.00127
0.00127
0.00127
0.00127
0.00127
0.00127
0.00127
0.00127
0.00127
0.00127
0.00127
0.00127
0.00127
0.00127
0.00127
0.00127
0.00127
0.00127
0.00127
0.00127
0.00127
0.00127
0.00127
0.00127
0.00127
0.00127
0.00127
0.00127
0.00127
0.00127
0.00127
0.00127
0.00127
0.00127
0.00127
0.00127
0.00127
0.00127
0.00127
0.00127
0.00127
0.00127
0.00127
0.00127
0.00127
0.00127
0.00127
0.00127
0.00127
0.00127
0.00127
0.00127
0.00127
0.00127
0.00127
0.00127
0.00127
0.00127
0.00127
0.00127
0.00127
0.00127
0.00127
0.00127
0.00127
0.00127
0.00127
0.00127
0.00127
0.00127
0.00127
0.00127
0.00127
0.00127
0.00127
0.00127
0.00127
0.00127
0.00127
0.00127
0.00127
0.00127
0.00127
0.00127
0.00127
0.00127
0.00127
0.00127
0.00127
0.00127
0.00127
0.00127
0.00127
0.00127
0.00127
0.00127
0.00127
0.00127
0.00127
0.00127
0.00127
0.00127
0.00127
0.00127
0.00127
0.00127
0.00127
0.00127
0.00127
0.00127
0.00127
0.00127
0.00127
0.00127
0.00127
0.00127
0.00127
0.00127
0.00127
0.00127
0.00127
0.00127
0.00127
0.00127
0.00127
0.00127
0.00127
0.00127
0.00127
0.00127
0.00127
0.00127
0.00127
0.00127
0.00127
0.00127
0.00127
0.00127
0.00127
0.00127
0.00127
0.00127
0.00127
0.00127
0.00127
0.00127
0.00127
0.00127
0.00127
0.00127
0.00127
0.00127
0.00127
0.00127
0.00127
0.00127
0.00127
0.00127
0.00127
0.00127
0.00127
0.00127
0.00127
0.00127
0.00127
0.00127
0.00127
0.00127
0.00127
0.00127
0.00127
0.00127
0.00127
0.00127
0.00127
0.00127
0.00127
0.00127
0.00127
0.00127
0.00127
0.00127
0.00127
0.00127
0.00127
0.00127
0.00127
0.00127
0.00127
0.00127
0.00127
0.00127
0.00127
0.00127
0.00127
0.00127
0.00127
0.00127
0.00127
0.00127
0.00127
0.00127
0.00127
0.00127
0.00127
0.00127
0.00127
0.00127
0.00127
0.00127
0.00127
0.00127
0.00127
0.00127
0.00127
0.00127
0.00127
0.00127
0.00127
0.00127
0.00127
0.00127
0.00127
0.00127
0.00127
0.00127
0.00127
0.00127
0.00127
0.00127
0.00127
0.00127
0.00127
0.00127
0.00127
0.00127
0.00127
0.00127
0.00127
0.00127
0.00127
0.00127
0.00127
0.00127
0.00127
0.00127
0.00127
0.00127
0.00127
0.00127
0.00127
0.00127
0.00127
0.00127
0.00127
0.00127
0.00127
0.00127
0.00127
0.00127
0.00127
0.00127
0.00127
0.00127
0.00127
0.00127
0.00127
0.00127
0.00127
0.00127
0.00127
0.00127
0.00127
0.00127
0.00127
0.00127
0.00127
0.00127
0.00127
0.00127
0.00127
0.00127
0.00127
0.00127
0.00127
0.00127
0.00127
0.00127
0.00127
0.00127
0.00127
0.00127
0.00127
0.00127
0.00127
0.00127
0.00127
0.00127
0.00127
0.00127
0.00127
0.00127
0.00127
0.00127
0.00127
0.00127
0.00127
0.00127
0.00127
0.00127
0.00127
0.00127
0.00127
0.00127
0.00127
0.00127
0.00127
0.00127
0.00127
0.00127
0.00127
0.00127
0.00127
0.00127
0.00127
0.00127
0.00127
0.00127
0.00127
0.00127
0.00127
0.00127
0.00127
0.00127
0.00127
0.00127
0.00127
0.00127
0.00127
0.00127
0.00127
0.00127
0.00127
0.00127
0.00127
0.00127
0.00127
0.00127
0.00127
0.00127
0.00127
0.00127
0.00127
0.00127
0.00127
0.00127
0.00127
0.00127
0.00127
0.00127
0.00127
0.00127
0.00127
0.00127
0.00127
0.00127
0.00127
0.00127
0.00127
0.00127
0.00127
0.00127
0.00127
0.00127
0.00127
0.00127
0.00127
0.00127
0.00127
0.00127
0.00127
0.00127
0.00127
0.00127
0.00127
0.00127
0.00127
0.00127
0.00127
0.00127
0.00127
0.00127
0.00127
0.00127
0.00127
0.00127
0.00127
0.00127
0.00127
0.00127
0.00127
0.00127
0.00127
0.00127
0.00127
0.00127
0.00127
0.00127
0.00127
0.00127
0.00127
0.00127
0.00127
0.00127
0.00127
0.00127
0.00127
0.00127
0.00127
0.00127
0.00127
0.00127
0.00127
0.00127
0.00127
0.00127
0.00127
0.00127
0.00127
0.00127
0.00127
0.00127
0.00127
0.00127
0.00127
0.00127
0.00127
0.00127
0.00127
0.00127
0.00127
0.00127
0.00127
0.00127
0.00127
0.00127
0.00127
0.00127
0.00127
0.00127
0.00127
0.00127
0.00127
0.00127
0.00127
0.00127
0.00127
0.00127
0.00127
0.00127
0.00127
0.00127
0.00127
0.00127
0.00127
0.00127
0.00127
0.00127
0.00127
0.00127
0.00127
0.00127
0.00127
0.00127
0.00127
0.00127
0.00127
0.00127
0.00127
0.00127
0.00127
0.00127
0.00127
0.00127
0.00127
0.00127
0.00127
0.00127
0.00127
0.00127
0.00127
0.00127
0.00127
0.00127
0.00127
0.00127
0.00127
0.00127
0.00127
0.00127
0.00127
0.00127
0.00127
0.00127
0.00127
0.00127
0.00127
0.00127
0.00127
0.00127
0.00127
0.00127
0.00127
0.00127
0.00127
0.00127
0.00127
0.00127
0.00127
0.00127
0.00127
0.00127
0.00127
0.00127
0.00127
0.00127
0.00127
0.00127
0.00127
0.00127
0.00127
0.00127
0.00127
0.00127
0.00127
0.00127
0.00127
0.00127
0.00127
0.00127
0.00127
0.00127
0.00127
0.00127
0.00127
0.00127
0.00127
0.00127
0.00127
0.00127
0.00127
0.00127
0.00127
0.00127
0.00127
0.00127
0.00127
0.00127
0.00127
0.00127
0.00127
0.00127
0.00127
0.00127
0.00127
0.00127
0.00127
0.00127
0.00127
0.00127
0.00127
0.00127
0.00127
0.00127
0.00127
0.00127
0.00127
0.00127
0.00127
0.00127
0.00127
0.00127
0.00127
0.00127
0.00127
0.00127
0.00127
0.00127
0.00127
0.00127
0.00127
0.00127
0.00127
0.00127
0.00127
0.00127
0.00127
0.00127
0.00127
0.00127
0.00127
0.00127
0.00127
0.00127
0.00127
0.00127
0.00127
0.00127
0.00127
0.00127
0.00127
0.00127
0.00127
0.00127
0.00127
0.00127
0.00127
0.00127
0.00127
0.00127
0.00127
0.00127
0.00127
0.00127
0.00127
0.00127
0.00127
0.00127
0.00127
0.00127
0.00127
0.00127
0.00127
0.00127
0.00127
0.00127
0.00127
0.00127
0.00127
0.00127
0.00127
0.00127
0.00127
0.00127
0.00127
0.00127
0.00127
0.00127
0.00127
0.00127
0.00127
0.00127
0.00127
0.00127
0.00127
0.00127
0.00127
0.00127
0.00127
0.00127
0.00127
0.00127
0.00127
0.00127
0.00127
0.00127
0.00127
0.00127
0.00127
0.00127
0.00127
0.00127
0.00127
0.00127
0.00127
0.00127
0.00127
0.00127
0.00127
0.00127
0.00127
0.00127
0.00127
0.00127
0.00127
0.00127
0.00127
0.00127
0.00127
0.00127
0.00127
0.00127
0.00127
0.00127
0.00127
0.00127
0.00127
0.00127
0.00127
0.00127
0.00127
0.00127
0.00127
0.00127
0.00127
0.00127
0.00127
0.00127
0.00127
0.00127
0.00127
0.00127
0.00127
0.00127
0.00127
0.00127
0.00127
0.00127
0.00127
0.00127
0.00127
0.00127
0.00127
0.00127
0.00127
0.00127
0.00127
0.00127
0.00127
0.00127
0.00127
0.00127
0.00127
0.00127
0.00127
0.00127
0.00127
0.00127
0.00127
0.00127
0.00127
0.00127
0.00127
0.00127
0.00127
0.00127
0.00127
0.00127
0.00127
0.00127
0.00127
0.00127
0.00127
0.00127
0.00127
0.00127
0.00127
0.00127
0.00127
0.00127
0.00127
0.00127
0.00127
0.00127
0.00127
0.00127
0.00127
0.00127
0.00127
0.00127
0.00127
0.00127
0.00127
0.00127
0.00127
0.00127
0.00127
0.00127
0.00127
0.00127
0.00127
0.00127
0.00127
0.00127
0.00127
0.00127
0.00127
0.00127
0.00127
0.00127
0.00127
0.00127
0.00127
0.00127
0.00127
0.00127
0.00127
0.00127
0.00127
0.00127
0.00127
0.00127
0.00127
0.00127
0.00127
0.00127
0.00127
0.00127
0.00127
0.00127
0.00127
0.00127
0.00127
0.00127
0.00127
0.00127
0.00127
0.00127
0.00127
0.00127
0.00127
0.00127
0.00127
0.00127
0.00127
0.00127
0.00127
0.00127
0.00127
0.00127
0.00127
0.00127
0.00127
0.00127
0.00127
0.00127
0.00127
0.00127
0.00127
0.00127
0.00127
0.00127
0.00127
0.00127
0.00127
0.00127
0.00127
0.00127
0.00127
0.00127
0.00127
0.00127
0.00127
0.00127
0.00127
0.00127
0.00127
0.00127
0.00127
0.00127
0.00127
0.00127
0.00127
0.00127
0.00127
0.00127
0.00127
0.00127
0.00127
0.00127
0.00127
0.00127
0.00127
0.00127
0.00127
0.00127
0.00127
0.00127
0.00127
0.00127
0.00127
0.00127
0.00127
0.00127
0.00127
0.0010297297297
0.0010297297297
0.0010297297297
0.0010297297297
0.0010297297297
0.0010297297297
0.0010297297297
0.0010297297297
0.0010297297297
0.0010297297297
0.0010297297297
0.0010297297297
0.0010297297297
0.0010297297297
0.0010297297297
0.0010297297297
0.0010297297297
0.0010297297297
0.0010297297297
0.0010297297297
0.0010297297297
0.0010297297297
0.0010297297297
0.0010297297297
0.0010297297298
0.0010297297298
0.0010297297298
0.0010297297298
0.0010297297298
0.0010297297298
0.0010297297298
0.0010297297298
0.0010297297298
0.0010297297298
0.0010297297298
0.0010297297298
0.0010297297298
0.0010297297298
0.0010297297298
0.0010297297298
0.0010297297298
0.0010297297298
0.0010297297298
0.0010297297298
0.0010297297298
0.0010297297298
0.0010297297298
0.0010297297298
0.0010297297297
0.0010297297297
0.0010297297297
0.0010297297297
0.0010297297297
0.0010297297297
0.0010297297297
0.0010297297297
0.0010297297297
0.0010297297297
0.0010297297297
0.0010297297297
0.0010297297297
0.0010297297297
0.0010297297297
0.0010297297297
0.0010297297297
0.0010297297297
0.0010297297297
0.0010297297297
0.0010297297297
0.0010297297297
0.0010297297297
0.0010297297297
0.0010297297297
0.0010297297297
0.0010297297297
0.0010297297297
0.0010297297297
0.0010297297297
0.0010297297297
0.0010297297297
0.0010297297297
0.0010297297297
0.0010297297297
0.0010297297297
0.0010297297297
0.0010297297297
0.0010297297297
0.0010297297297
0.0010297297297
0.0010297297297
0.0010297297297
0.0010297297297
0.0010297297297
0.0010297297297
0.0010297297297
0.0010297297297
0.0010297297297
0.0010297297297
0.0010297297297
0.0010297297297
0.0010297297297
0.0010297297297
0.0010297297297
0.0010297297297
0.0010297297297
0.0010297297297
0.0010297297297
0.0010297297297
0.0010297297297
0.0010297297297
0.0010297297297
0.0010297297297
0.0010297297297
0.0010297297297
0.0010297297297
0.0010297297297
0.0010297297297
0.0010297297297
0.0010297297297
0.0010297297297
0.0010297297298
0.0010297297298
0.0010297297298
0.0010297297298
0.0010297297298
0.0010297297298
0.0010297297298
0.0010297297298
0.0010297297298
0.0010297297298
0.0010297297298
0.0010297297298
0.0010297297298
0.0010297297298
0.0010297297298
0.0010297297298
0.0010297297298
0.0010297297298
0.0010297297298
0.0010297297298
0.0010297297298
0.0010297297298
0.0010297297298
0.0010297297298
0.0010297297297
0.0010297297297
0.0010297297297
0.0010297297297
0.0010297297297
0.0010297297297
0.0010297297297
0.0010297297297
0.0010297297297
0.0010297297297
0.0010297297297
0.0010297297297
0.0010297297297
0.0010297297297
0.0010297297297
0.0010297297297
0.0010297297297
0.0010297297297
0.0010297297297
0.0010297297297
0.0010297297297
0.0010297297297
0.0010297297297
0.0010297297297
0.0010297297297
0.0010297297297
0.0010297297297
0.0010297297297
0.0010297297297
0.0010297297297
0.0010297297297
0.0010297297297
0.0010297297297
0.0010297297297
0.0010297297297
0.0010297297297
0.0010297297297
0.0010297297297
0.0010297297297
0.0010297297297
0.0010297297297
0.0010297297297
0.0010297297297
0.0010297297297
0.0010297297297
0.0010297297297
0.0010297297297
0.0010297297297
0.0010297297298
0.0010297297298
0.0010297297298
0.0010297297298
0.0010297297298
0.0010297297298
0.0010297297298
0.0010297297298
0.0010297297298
0.0010297297298
0.0010297297298
0.0010297297298
0.0010297297298
0.0010297297298
0.0010297297298
0.0010297297298
0.0010297297298
0.0010297297298
0.0010297297298
0.0010297297298
0.0010297297298
0.0010297297298
0.0010297297298
0.0010297297298
0.0010297297297
0.0010297297297
0.0010297297297
0.0010297297297
0.0010297297297
0.0010297297297
0.0010297297297
0.0010297297297
0.0010297297297
0.0010297297297
0.0010297297297
0.0010297297297
0.0010297297297
0.0010297297297
0.0010297297297
0.0010297297297
0.0010297297297
0.0010297297297
0.0010297297297
0.0010297297297
0.0010297297297
0.0010297297297
0.0010297297297
0.0010297297297
0.0010297297297
0.0010297297297
0.0010297297297
0.0010297297297
0.0010297297297
0.0010297297297
0.0010297297297
0.0010297297297
0.0010297297297
0.0010297297297
0.0010297297297
0.0010297297297
0.0010297297297
0.0010297297297
0.0010297297297
0.0010297297297
0.0010297297297
0.0010297297297
0.0010297297297
0.0010297297297
0.0010297297297
0.0010297297297
0.0010297297297
0.0010297297297
0.0010297297298
0.0010297297298
0.0010297297298
0.0010297297298
0.0010297297298
0.0010297297298
0.0010297297298
0.0010297297298
0.0010297297298
0.0010297297298
0.0010297297298
0.0010297297298
0.0010297297298
0.0010297297298
0.0010297297298
0.0010297297298
0.0010297297298
0.0010297297298
0.0010297297298
0.0010297297298
0.0010297297298
0.0010297297298
0.0010297297298
0.0010297297298
0.0010297297297
0.0010297297297
0.0010297297297
0.0010297297297
0.0010297297297
0.0010297297297
0.0010297297297
0.0010297297297
0.0010297297297
0.0010297297297
0.0010297297297
0.0010297297297
0.0010297297297
0.0010297297297
0.0010297297297
0.0010297297297
0.0010297297297
0.0010297297297
0.0010297297297
0.0010297297297
0.0010297297297
0.0010297297297
0.0010297297297
0.0010297297297
0.0010297297297
0.0010297297297
0.0010297297297
0.0010297297297
0.0010297297297
0.0010297297297
0.0010297297297
0.0010297297297
0.0010297297297
0.0010297297297
0.0010297297297
0.0010297297297
0.0010297297297
0.0010297297297
0.0010297297297
0.0010297297297
0.0010297297297
0.0010297297297
0.0010297297297
0.0010297297297
0.0010297297297
0.0010297297297
0.0010297297297
0.0010297297297
0.0010297297297
0.0010297297297
0.0010297297297
0.0010297297297
0.0010297297297
0.0010297297297
0.0010297297297
0.0010297297297
0.0010297297297
0.0010297297297
0.0010297297297
0.0010297297297
0.0010297297297
0.0010297297297
0.0010297297297
0.0010297297297
0.0010297297297
0.0010297297297
0.0010297297297
0.0010297297297
0.0010297297297
0.0010297297297
0.0010297297297
0.0010297297297
0.0010297297298
0.0010297297298
0.0010297297298
0.0010297297298
0.0010297297298
0.0010297297298
0.0010297297298
0.0010297297298
0.0010297297298
0.0010297297298
0.0010297297298
0.0010297297298
0.0010297297298
0.0010297297298
0.0010297297298
0.0010297297298
0.0010297297298
0.0010297297298
0.0010297297298
0.0010297297298
0.0010297297298
0.0010297297298
0.0010297297298
0.0010297297298
0.0010297297297
0.0010297297297
0.0010297297297
0.0010297297297
0.0010297297297
0.0010297297297
0.0010297297297
0.0010297297297
0.0010297297297
0.0010297297297
0.0010297297297
0.0010297297297
0.0010297297297
0.0010297297297
0.0010297297297
0.0010297297297
0.0010297297297
0.0010297297297
0.0010297297297
0.0010297297297
0.0010297297297
0.0010297297297
0.0010297297297
0.0010297297297
0.0010297297297
0.0010297297297
0.0010297297297
0.0010297297297
0.0010297297297
0.0010297297297
0.0010297297297
0.0010297297297
0.0010297297297
0.0010297297297
0.0010297297297
0.0010297297297
0.0010297297297
0.0010297297297
0.0010297297297
0.0010297297297
0.0010297297297
0.0010297297297
0.0010297297297
0.0010297297297
0.0010297297297
0.0010297297297
0.0010297297297
0.0010297297297
0.0010297297298
0.0010297297298
0.0010297297298
0.0010297297298
0.0010297297298
0.0010297297298
0.0010297297298
0.0010297297298
0.0010297297298
0.0010297297298
0.0010297297298
0.0010297297298
0.0010297297298
0.0010297297298
0.0010297297298
0.0010297297298
0.0010297297298
0.0010297297298
0.0010297297298
0.0010297297298
0.0010297297298
0.0010297297298
0.0010297297298
0.0010297297298
0.0010297297297
0.0010297297297
0.0010297297297
0.0010297297297
0.0010297297297
0.0010297297297
0.0010297297297
0.0010297297297
0.0010297297297
0.0010297297297
0.0010297297297
0.0010297297297
0.0010297297297
0.0010297297297
0.0010297297297
0.0010297297297
0.0010297297297
0.0010297297297
0.0010297297297
0.0010297297297
0.0010297297297
0.0010297297297
0.0010297297297
0.0010297297297
0.0010297297297
0.0010297297297
0.0010297297297
0.0010297297297
0.0010297297297
0.0010297297297
0.0010297297297
0.0010297297297
0.0010297297297
0.0010297297297
0.0010297297297
0.0010297297297
0.0010297297297
0.0010297297297
0.0010297297297
0.0010297297297
0.0010297297297
0.0010297297297
0.0010297297297
0.0010297297297
0.0010297297297
0.0010297297297
0.0010297297297
0.0010297297297
0.0010297297298
0.0010297297298
0.0010297297298
0.0010297297298
0.0010297297298
0.0010297297298
0.0010297297298
0.0010297297298
0.0010297297298
0.0010297297298
0.0010297297298
0.0010297297298
0.0010297297298
0.0010297297298
0.0010297297298
0.0010297297298
0.0010297297298
0.0010297297298
0.0010297297298
0.0010297297298
0.0010297297298
0.0010297297298
0.0010297297298
0.0010297297298
0.0010297297297
0.0010297297297
0.0010297297297
0.0010297297297
0.0010297297297
0.0010297297297
0.0010297297297
0.0010297297297
0.0010297297297
0.0010297297297
0.0010297297297
0.0010297297297
0.0010297297297
0.0010297297297
0.0010297297297
0.0010297297297
0.0010297297297
0.0010297297297
0.0010297297297
0.0010297297297
0.0010297297297
0.0010297297297
0.0010297297297
0.0010297297297
0.0010297297302
0.0010297297302
0.0010297297302
0.0010297297302
0.0010297297302
0.0010297297302
0.0010297297302
0.0010297297302
0.0010297297302
0.0010297297302
0.0010297297302
0.0010297297302
0.0010297297302
0.0010297297302
0.0010297297302
0.0010297297302
0.0010297297302
0.0010297297302
0.0010297297302
0.0010297297302
0.0010297297302
0.0010297297302
0.0010297297302
0.0010297297302
0.001029729729
0.001029729729
0.001029729729
0.001029729729
0.001029729729
0.001029729729
0.001029729729
0.001029729729
0.001029729729
0.001029729729
0.001029729729
0.001029729729
0.001029729729
0.001029729729
0.001029729729
0.001029729729
0.001029729729
0.001029729729
0.001029729729
0.001029729729
0.001029729729
0.001029729729
0.001029729729
0.001029729729
0.00102972973
0.00102972973
0.00102972973
0.00102972973
0.00102972973
0.00102972973
0.00102972973
0.00102972973
0.00102972973
0.00102972973
0.00102972973
0.00102972973
0.00102972973
0.00102972973
0.00102972973
0.00102972973
0.00102972973
0.00102972973
0.00102972973
0.00102972973
0.00102972973
0.00102972973
0.00102972973
0.00102972973
0.00102972973
0.00102972973
0.00102972973
0.00102972973
0.00102972973
0.00102972973
0.00102972973
0.00102972973
0.00102972973
0.00102972973
0.00102972973
0.00102972973
0.00102972973
0.00102972973
0.00102972973
0.00102972973
0.00102972973
0.00102972973
0.00102972973
0.00102972973
0.00102972973
0.00102972973
0.00102972973
0.00102972973
0.001029729729
0.001029729729
0.001029729729
0.001029729729
0.001029729729
0.001029729729
0.001029729729
0.001029729729
0.001029729729
0.001029729729
0.001029729729
0.001029729729
0.001029729729
0.001029729729
0.001029729729
0.001029729729
0.001029729729
0.001029729729
0.001029729729
0.001029729729
0.001029729729
0.001029729729
0.001029729729
0.001029729729
0.00102972973
0.00102972973
0.00102972973
0.00102972973
0.00102972973
0.00102972973
0.00102972973
0.00102972973
0.00102972973
0.00102972973
0.00102972973
0.00102972973
0.00102972973
0.00102972973
0.00102972973
0.00102972973
0.00102972973
0.00102972973
0.00102972973
0.00102972973
0.00102972973
0.00102972973
0.00102972973
0.00102972973
0.00102972973
0.00102972973
0.00102972973
0.00102972973
0.00102972973
0.00102972973
0.00102972973
0.00102972973
0.00102972973
0.00102972973
0.00102972973
0.00102972973
0.00102972973
0.00102972973
0.00102972973
0.00102972973
0.00102972973
0.00102972973
0.00102972973
0.00102972973
0.00102972973
0.00102972973
0.00102972973
0.00102972973
0.00102972973
0.00102972973
0.00102972973
0.00102972973
0.00102972973
0.00102972973
0.00102972973
0.00102972973
0.00102972973
0.00102972973
0.00102972973
0.00102972973
0.00102972973
0.00102972973
0.00102972973
0.00102972973
0.00102972973
0.00102972973
0.00102972973
0.00102972973
0.00102972973
0.00102972973
0.00102972973
0.00102972973
0.001029729729
0.001029729729
0.001029729729
0.001029729729
0.001029729729
0.001029729729
0.001029729729
0.001029729729
0.001029729729
0.001029729729
0.001029729729
0.001029729729
0.001029729729
0.001029729729
0.001029729729
0.001029729729
0.001029729729
0.001029729729
0.001029729729
0.001029729729
0.001029729729
0.001029729729
0.001029729729
0.001029729729
0.00102972973
0.00102972973
0.00102972973
0.00102972973
0.00102972973
0.00102972973
0.00102972973
0.00102972973
0.00102972973
0.00102972973
0.00102972973
0.00102972973
0.00102972973
0.00102972973
0.00102972973
0.00102972973
0.00102972973
0.00102972973
0.00102972973
0.00102972973
0.00102972973
0.00102972973
0.00102972973
0.00102972973
0.00102972973
0.00102972973
0.00102972973
0.00102972973
0.00102972973
0.00102972973
0.00102972973
0.00102972973
0.00102972973
0.00102972973
0.00102972973
0.00102972973
0.00102972973
0.00102972973
0.00102972973
0.00102972973
0.00102972973
0.00102972973
0.00102972973
0.00102972973
0.00102972973
0.00102972973
0.00102972973
0.00102972973
0.00102972973
0.00102972973
0.00102972973
0.00102972973
0.00102972973
0.00102972973
0.00102972973
0.00102972973
0.00102972973
0.00102972973
0.00102972973
0.00102972973
0.00102972973
0.00102972973
0.00102972973
0.00102972973
0.00102972973
0.00102972973
0.00102972973
0.00102972973
0.00102972973
0.00102972973
0.00102972973
0.00102972973
0.001029729729
0.001029729729
0.001029729729
0.001029729729
0.001029729729
0.001029729729
0.001029729729
0.001029729729
0.001029729729
0.001029729729
0.001029729729
0.001029729729
0.001029729729
0.001029729729
0.001029729729
0.001029729729
0.001029729729
0.001029729729
0.001029729729
0.001029729729
0.001029729729
0.001029729729
0.001029729729
0.001029729729
0.00102972973
0.00102972973
0.00102972973
0.00102972973
0.00102972973
0.00102972973
0.00102972973
0.00102972973
0.00102972973
0.00102972973
0.00102972973
0.00102972973
0.00102972973
0.00102972973
0.00102972973
0.00102972973
0.00102972973
0.00102972973
0.00102972973
0.00102972973
0.00102972973
0.00102972973
0.00102972973
0.00102972973
0.001212605625
0.001212605625
0.001212605625
0.001212605625
0.001212605625
0.001212605625
0.001212605625
0.001212605625
0.001212605625
0.001212605625
0.001212605625
0.001212605625
0.001212605625
0.001212605625
0.001212605625
0.001212605625
0.001212605625
0.001212605625
0.001212605625
0.001212605625
0.001212605625
0.001212605625
0.001212605625
0.001212605625
0.001181533035
0.001181533035
0.001181533035
0.001181533035
0.001181533035
0.001181533035
0.001181533035
0.001181533035
0.001181533035
0.001181533035
0.001181533035
0.001181533035
0.001181533035
0.001181533035
0.001181533035
0.001181533035
0.001181533035
0.001181533035
0.001181533035
0.001181533035
0.001181533035
0.001181533035
0.001181533035
0.001181533035
0.001151256669
0.001151256669
0.001151256669
0.001151256669
0.001151256669
0.001151256669
0.001151256669
0.001151256669
0.001151256669
0.001151256669
0.001151256669
0.001151256669
0.001151256669
0.001151256669
0.001151256669
0.001151256669
0.001151256669
0.001151256669
0.001151256669
0.001151256669
0.001151256669
0.001151256669
0.001151256669
0.001151256669
0.001121756124
0.001121756124
0.001121756124
0.001121756124
0.001121756124
0.001121756124
0.001121756124
0.001121756124
0.001121756124
0.001121756124
0.001121756124
0.001121756124
0.001121756124
0.001121756124
0.001121756124
0.001121756124
0.001121756124
0.001121756124
0.001121756124
0.001121756124
0.001121756124
0.001121756124
0.001121756124
0.001121756124
0.001093011521
0.001093011521
0.001093011521
0.001093011521
0.001093011521
0.001093011521
0.001093011521
0.001093011521
0.001093011521
0.001093011521
0.001093011521
0.001093011521
0.001093011521
0.001093011521
0.001093011521
0.001093011521
0.001093011521
0.001093011521
0.001093011521
0.001093011521
0.001093011521
0.001093011521
0.001093011521
0.001093011521
0.001065003487
0.001065003487
0.001065003487
0.001065003487
0.001065003487
0.001065003487
0.001065003487
0.001065003487
0.001065003487
0.001065003487
0.001065003487
0.001065003487
0.001065003487
0.001065003487
0.001065003487
0.001065003487
0.001065003487
0.001065003487
0.001065003487
0.001065003487
0.001065003487
0.001065003487
0.001065003487
0.001065003487
0.00103771315
0.00103771315
0.00103771315
0.00103771315
0.00103771315
0.00103771315
0.00103771315
0.00103771315
0.00103771315
0.00103771315
0.00103771315
0.00103771315
0.00103771315
0.00103771315
0.00103771315
0.00103771315
0.00103771315
0.00103771315
0.00103771315
0.00103771315
0.00103771315
0.00103771315
0.00103771315
0.00103771315
0.001011122117
0.001011122117
0.001011122117
0.001011122117
0.001011122117
0.001011122117
0.001011122117
0.001011122117
0.001011122117
0.001011122117
0.001011122117
0.001011122117
0.001011122117
0.001011122117
0.001011122117
0.001011122117
0.001011122117
0.001011122117
0.001011122117
0.001011122117
0.001011122117
0.001011122117
0.001011122117
0.001011122117
0.000985212471
0.000985212471
0.000985212471
0.000985212471
0.000985212471
0.000985212471
0.000985212471
0.000985212471
0.000985212471
0.000985212471
0.000985212471
0.000985212471
0.000985212471
0.000985212471
0.000985212471
0.000985212471
0.000985212471
0.000985212471
0.000985212471
0.000985212471
0.000985212471
0.000985212471
0.000985212471
0.000985212471
0.00095996675
0.00095996675
0.00095996675
0.00095996675
0.00095996675
0.00095996675
0.00095996675
0.00095996675
0.00095996675
0.00095996675
0.00095996675
0.00095996675
0.00095996675
0.00095996675
0.00095996675
0.00095996675
0.00095996675
0.00095996675
0.00095996675
0.00095996675
0.00095996675
0.00095996675
0.00095996675
0.00095996675
0.000935367942
0.000935367942
0.000935367942
0.000935367942
0.000935367942
0.000935367942
0.000935367942
0.000935367942
0.000935367942
0.000935367942
0.000935367942
0.000935367942
0.000935367942
0.000935367942
0.000935367942
0.000935367942
0.000935367942
0.000935367942
0.000935367942
0.000935367942
0.000935367942
0.000935367942
0.000935367942
0.000935367942
0.000911399469
0.000911399469
0.000911399469
0.000911399469