/*--------------------------------*- C++ -*----------------------------------*\
| =========                 |                                                 |
| \\      /  F ield         | OpenFOAM: The Open Source CFD Toolbox           |
|  \\    /   O peration     | Version:  2112                                  |
|   \\  /    A nd           | Website:  www.openfoam.com                      |
|    \\/     M anipulation  |                                                 |
\*---------------------------------------------------------------------------*/
FoamFile
{
    version     2.0;
    format      ascii;
    arch        "LSB;label=64;scalar=64";
    class       volVectorField;
    location    "0";
    object      Up;
}
// * * * * * * * * * * * * * * * * * * * * * * * * * * * * * * * * * * * * * //

dimensions      [0 1 -1 0 0 0 0];

internalField   uniform (0 0 0);

boundaryField
{
    front
    {
        type            wedge;
        value           uniform (0 0 0);
    }
    back
    {
        type            wedge;
        value           uniform (0 0 0);
    }
    Wall
    {
        type            calculated;
        value           uniform (0 0 0);
    }
    nozzleWall
    {
        type            calculated;
        value           uniform (0 0 0);
    }
    inlet
    {
        type            calculated;
        value           uniform (0 0 0);
    }
    outlet
    {
        type            calculated;
        value           uniform (0 0 0);
    }
    block2I1
    {
        type            calculated;
        value           uniform (0 0 0);
    }
    PCWall
    {
        type            calculated;
        value           uniform (0 0 0);
    }
}


// ************************************************************************* //
