/*--------------------------------*- C++ -*----------------------------------*\
| =========                 |                                                 |
| \\      /  F ield         | OpenFOAM: The Open Source CFD Toolbox           |
|  \\    /   O peration     | Version:  2112                                  |
|   \\  /    A nd           | Website:  www.openfoam.com                      |
|    \\/     M anipulation  |                                                 |
\*---------------------------------------------------------------------------*/
FoamFile
{
    version     2.0;
    format      ascii;
    arch        "LSB;label=64;scalar=64";
    class       polyBoundaryMesh;
    location    "constant/polyMesh";
    object      boundary;
}
// * * * * * * * * * * * * * * * * * * * * * * * * * * * * * * * * * * * * * //

5
(
    front
    {
        type            wedge;
        inGroups        1(wedge);
        nFaces          5589;
        startFace       10912;
    }
    back
    {
        type            wedge;
        inGroups        1(wedge);
        nFaces          5589;
        startFace       16501;
    }
    nozzleWall
    {
        type            wall;
        inGroups        1(wall);
        nFaces          243;
        startFace       22090;
    }
    inlet
    {
        type            patch;
        nFaces          23;
        startFace       22333;
    }
    outlet
    {
        type            patch;
        nFaces          23;
        startFace       22356;
    }
)

// ************************************************************************* //
