/*--------------------------------*- C++ -*----------------------------------*\
| =========                 |                                                 |
| \\      /  F ield         | OpenFOAM: The Open Source CFD Toolbox           |
|  \\    /   O peration     | Version:  v2112                                 |
|   \\  /    A nd           | Website:  www.openfoam.com                      |
|    \\/     M anipulation  |                                                 |
\*---------------------------------------------------------------------------*/
FoamFile
{
    version     2.0;
    format      ascii;
    class       dictionary;
    object      phaseProperties;
}
// * * * * * * * * * * * * * * * * * * * * * * * * * * * * * * * * * * * * * //

type            interfaceCombustionMultiphaseSystem;

phases          (gas particles);

particlePhase	particles;

gasPhase	gas;

propellantIndex -1;

molecularWeight
{
  Al        27;
  Al2O3     102;
  H2        2;
  H2O       18;
}

trapingFactor  0; // Not Implemented yet

A	0;
B	1;
C	0;

activeAlContent	  0.745;

equivalenceRatio    0.71;

Tad                 2327;

Tset		    2000;

Efficiency	        1.0;

chemicalEfficiency    1.0;

thinFlimModel	      true;

propellantRho       1480;

particleRho	    3950;

totalEnergy 	false;

isoAdvection   false;

regression 	true;

solveStaticAlpha   true;

checkRegression    full;

stopRegression     0;

V0	             1;

gas
{
    type            pureThermalEnergyPhaseModel;
    diameterModel   constant;
    constantCoeffs
    {
        d               0.08e-6;
    }
    residualAlpha   1e-15;
}

particles
{
    //type 	     pureIsothermalStaticPhaseModel;
    type            pureThermalEnergyPhaseModel;
    //type            pureParticlePhaseModel;
    //type            purePhaseModel;
    diameterModel   constant;
    constantCoeffs
    {
        d               0.08e-6;
    }
    residualAlpha   1e-15;
}

propellant
{
    type            pureIsothermalStaticPhaseModel;
    diameterModel   constant;
    constantCoeffs
    {
        d           0.08e-6;
    }
    residualAlpha   1e-15;
}

interfaceTracking1
(
  (particles in gas)
  {
    type            subCellularInterfaceMotion;
    propellant      propellant;
    n               0.785;
    a               0.602;
    f               1.0;
    isoAlpha 	      0.5;
  }
);

interfaceTracking
();

sharpInterfaceHeatTransfer1
();

sharpInterfaceHeatTransfer
(
  (particles in gas)
  {
    type            RanzMarshall;
    //type            KavanauRanzMarshall;
    residualAlpha   1e-15;
    cutoff          1e-15;
    gammaR          1609.42;
  }
);

blending
{
    default
    {
      type            none;
      continuousPhase gas;
    }
}

surfaceTension
();

saturationModel
{
	type 	constant;
	Tsat	373;
	pSat	1e5;
};

aspectRatio
();

drag1
();

drag
(
  (particles in gas)
  {
    type            Loth;
    //type            CliftGauvinMilikan;
    residualRe      1e-15;
    R	 	    1251.3;
    gamma	    1.2862;
    swarmCorrection
    {
    	type        none;
    }
  }
);

virtualMass
();

interfaceComposition
();

interfaceCompression
();

// Models used to find Mass Transfer Coefficient for component transfer within the gas phase
massTransfer.gas
();

massTransfer.propellant
();

heatTransfer.particles
();

heatTransfer.gas
();

heatTransfer.propellant
();

phaseTransfer
();

lift
();

wallLubrication
();

turbulentDispersion
();

// Minimum allowable pressure
pMin            10;


// ************************************************************************* //
