/*--------------------------------*- C++ -*----------------------------------*\
| =========                 |                                                 |
| \\      /  F ield         | OpenFOAM: The Open Source CFD Toolbox           |
|  \\    /   O peration     | Version:  2112                                  |
|   \\  /    A nd           | Website:  www.openfoam.com                      |
|    \\/     M anipulation  |                                                 |
\*---------------------------------------------------------------------------*/
FoamFile
{
    version     2.0;
    format      ascii;
    arch        "LSB;label=64;scalar=64";
    class       scalarField;
    location    "constant";
    object      xDim;
}
// * * * * * * * * * * * * * * * * * * * * * * * * * * * * * * * * * * * * * //


14229
(
0.000469215051713
0.00045007382149
0.000431713441527
0.0004141020577
0.00039720911534
0.00038100530624
0.00036546251781
0.00035055378423
0.00033625323982
0.00032253607399
0.0003093784883
0.00029675765517
0.00028465167822
0.00027303955435
0.00026190113722
0.00025121710237
0.00024096891367
0.00023113879113
0.00022170968012
0.00021266522169
0.00020398972427
0.00019566813641
0.00018768602069
0.00018861646174
0.00018861646174
0.00018861646174
0.00018861646175
0.00018861646174
0.00018861646174
0.00018861646174
0.00018861646174
0.00018861646174
0.00018861646175
0.00018861646174
0.00018861646174
0.00018861646174
0.000469215051713
0.00045007382149
0.000431713441527
0.0004141020577
0.00039720911534
0.00038100530624
0.00036546251781
0.00035055378423
0.00033625323982
0.00032253607399
0.0003093784883
0.00029675765517
0.00028465167822
0.00027303955435
0.00026190113722
0.00025121710237
0.00024096891367
0.00023113879113
0.00022170968012
0.00021266522169
0.00020398972427
0.00019566813641
0.00018768602069
0.00018861646174
0.00018861646174
0.00018861646174
0.00018861646175
0.00018861646174
0.00018861646174
0.00018861646174
0.00018861646174
0.00018861646174
0.00018861646175
0.00018861646174
0.00018861646174
0.00018861646174
0.000469215051713
0.00045007382149
0.000431713441527
0.0004141020577
0.00039720911534
0.00038100530624
0.00036546251781
0.00035055378423
0.00033625323982
0.00032253607399
0.0003093784883
0.00029675765517
0.00028465167822
0.00027303955435
0.00026190113722
0.00025121710237
0.00024096891367
0.00023113879113
0.00022170968012
0.00021266522169
0.00020398972427
0.00019566813641
0.00018768602069
0.00018861646174
0.00018861646174
0.00018861646174
0.00018861646175
0.00018861646174
0.00018861646174
0.00018861646174
0.00018861646174
0.00018861646174
0.00018861646175
0.00018861646174
0.00018861646174
0.00018861646174
0.000469215051713
0.00045007382149
0.000431713441527
0.0004141020577
0.00039720911534
0.00038100530624
0.00036546251781
0.00035055378423
0.00033625323982
0.00032253607399
0.0003093784883
0.00029675765517
0.00028465167822
0.00027303955435
0.00026190113722
0.00025121710237
0.00024096891367
0.00023113879113
0.00022170968012
0.00021266522169
0.00020398972427
0.00019566813641
0.00018768602069
0.00018861646174
0.00018861646174
0.00018861646174
0.00018861646175
0.00018861646174
0.00018861646174
0.00018861646174
0.00018861646174
0.00018861646174
0.00018861646175
0.00018861646174
0.00018861646174
0.00018861646174
0.000469215051713
0.00045007382149
0.000431713441527
0.0004141020577
0.00039720911534
0.00038100530624
0.00036546251781
0.00035055378423
0.00033625323982
0.00032253607399
0.0003093784883
0.00029675765517
0.00028465167822
0.00027303955435
0.00026190113722
0.00025121710237
0.00024096891367
0.00023113879113
0.00022170968012
0.00021266522169
0.00020398972427
0.00019566813641
0.00018768602069
0.00018861646174
0.00018861646174
0.00018861646174
0.00018861646175
0.00018861646174
0.00018861646174
0.00018861646174
0.00018861646174
0.00018861646174
0.00018861646175
0.00018861646174
0.00018861646174
0.00018861646174
0.000469215051713
0.00045007382149
0.000431713441527
0.0004141020577
0.00039720911534
0.00038100530624
0.00036546251781
0.00035055378423
0.00033625323982
0.00032253607399
0.0003093784883
0.00029675765517
0.00028465167822
0.00027303955435
0.00026190113722
0.00025121710237
0.00024096891367
0.00023113879113
0.00022170968012
0.00021266522169
0.00020398972427
0.00019566813641
0.00018768602069
0.00018861646174
0.00018861646174
0.00018861646174
0.00018861646175
0.00018861646174
0.00018861646174
0.00018861646174
0.00018861646174
0.00018861646174
0.00018861646175
0.00018861646174
0.00018861646174
0.00018861646174
0.000469215051713
0.00045007382149
0.000431713441527
0.0004141020577
0.00039720911534
0.00038100530624
0.00036546251781
0.00035055378423
0.00033625323982
0.00032253607399
0.0003093784883
0.00029675765517
0.00028465167822
0.00027303955435
0.00026190113722
0.00025121710237
0.00024096891367
0.00023113879113
0.00022170968012
0.00021266522169
0.00020398972427
0.00019566813641
0.00018768602069
0.00018861646174
0.00018861646174
0.00018861646174
0.00018861646175
0.00018861646174
0.00018861646174
0.00018861646174
0.00018861646174
0.00018861646174
0.00018861646175
0.00018861646174
0.00018861646174
0.00018861646174
0.000469215051713
0.00045007382149
0.000431713441527
0.0004141020577
0.00039720911534
0.00038100530624
0.00036546251781
0.00035055378423
0.00033625323982
0.00032253607399
0.0003093784883
0.00029675765517
0.00028465167822
0.00027303955435
0.00026190113722
0.00025121710237
0.00024096891367
0.00023113879113
0.00022170968012
0.00021266522169
0.00020398972427
0.00019566813641
0.00018768602069
0.00018861646174
0.00018861646174
0.00018861646174
0.00018861646175
0.00018861646174
0.00018861646174
0.00018861646174
0.00018861646174
0.00018861646174
0.00018861646175
0.00018861646174
0.00018861646174
0.00018861646174
0.000469215051713
0.00045007382149
0.000431713441527
0.0004141020577
0.00039720911534
0.00038100530624
0.00036546251781
0.00035055378423
0.00033625323982
0.00032253607399
0.0003093784883
0.00029675765517
0.00028465167822
0.00027303955435
0.00026190113722
0.00025121710237
0.00024096891367
0.00023113879113
0.00022170968012
0.00021266522169
0.00020398972427
0.00019566813641
0.00018768602069
0.00018861646174
0.00018861646174
0.00018861646174
0.00018861646175
0.00018861646174
0.00018861646174
0.00018861646174
0.00018861646174
0.00018861646174
0.00018861646175
0.00018861646174
0.00018861646174
0.00018861646174
0.000469215051713
0.00045007382149
0.000431713441527
0.0004141020577
0.00039720911534
0.00038100530624
0.00036546251781
0.00035055378423
0.00033625323982
0.00032253607399
0.0003093784883
0.00029675765517
0.00028465167822
0.00027303955435
0.00026190113722
0.00025121710237
0.00024096891367
0.00023113879113
0.00022170968012
0.00021266522169
0.00020398972427
0.00019566813641
0.00018768602069
0.00018861646174
0.00018861646174
0.00018861646174
0.00018861646175
0.00018861646174
0.00018861646174
0.00018861646174
0.00018861646174
0.00018861646174
0.00018861646175
0.00018861646174
0.00018861646174
0.00018861646174
0.000469215051713
0.00045007382149
0.000431713441527
0.0004141020577
0.00039720911534
0.00038100530624
0.00036546251781
0.00035055378423
0.00033625323982
0.00032253607399
0.0003093784883
0.00029675765517
0.00028465167822
0.00027303955435
0.00026190113722
0.00025121710237
0.00024096891367
0.00023113879113
0.00022170968012
0.00021266522169
0.00020398972427
0.00019566813641
0.00018768602069
0.00018861646174
0.00018861646174
0.00018861646174
0.00018861646175
0.00018861646174
0.00018861646174
0.00018861646174
0.00018861646174
0.00018861646174
0.00018861646175
0.00018861646174
0.00018861646174
0.00018861646174
0.000469215051713
0.00045007382149
0.000431713441527
0.0004141020577
0.00039720911534
0.00038100530624
0.00036546251781
0.00035055378423
0.00033625323982
0.00032253607399
0.0003093784883
0.00029675765517
0.00028465167822
0.00027303955435
0.00026190113722
0.00025121710237
0.00024096891367
0.00023113879113
0.00022170968012
0.00021266522169
0.00020398972427
0.00019566813641
0.00018768602069
0.00018861646174
0.00018861646174
0.00018861646174
0.00018861646175
0.00018861646174
0.00018861646174
0.00018861646174
0.00018861646174
0.00018861646174
0.00018861646175
0.00018861646174
0.00018861646174
0.00018861646174
0.000469215051713
0.00045007382149
0.000431713441527
0.0004141020577
0.00039720911534
0.00038100530624
0.00036546251781
0.00035055378423
0.00033625323982
0.00032253607399
0.0003093784883
0.00029675765517
0.00028465167822
0.00027303955435
0.00026190113722
0.00025121710237
0.00024096891367
0.00023113879113
0.00022170968012
0.00021266522169
0.00020398972427
0.00019566813641
0.00018768602069
0.00018861646174
0.00018861646174
0.00018861646174
0.00018861646175
0.00018861646174
0.00018861646174
0.00018861646174
0.00018861646174
0.00018861646174
0.00018861646175
0.00018861646174
0.00018861646174
0.00018861646174
0.000469215051713
0.00045007382149
0.000431713441527
0.0004141020577
0.00039720911534
0.00038100530624
0.00036546251781
0.00035055378423
0.00033625323982
0.00032253607399
0.0003093784883
0.00029675765517
0.00028465167822
0.00027303955435
0.00026190113722
0.00025121710237
0.00024096891367
0.00023113879113
0.00022170968012
0.00021266522169
0.00020398972427
0.00019566813641
0.00018768602069
0.00018861646174
0.00018861646174
0.00018861646174
0.00018861646175
0.00018861646174
0.00018861646174
0.00018861646174
0.00018861646174
0.00018861646174
0.00018861646175
0.00018861646174
0.00018861646174
0.00018861646174
0.000469215051713
0.00045007382149
0.000431713441527
0.0004141020577
0.00039720911534
0.00038100530624
0.00036546251781
0.00035055378423
0.00033625323982
0.00032253607399
0.0003093784883
0.00029675765517
0.00028465167822
0.00027303955435
0.00026190113722
0.00025121710237
0.00024096891367
0.00023113879113
0.00022170968012
0.00021266522169
0.00020398972427
0.00019566813641
0.00018768602069
0.00018861646174
0.00018861646174
0.00018861646174
0.00018861646175
0.00018861646174
0.00018861646174
0.00018861646174
0.00018861646174
0.00018861646174
0.00018861646175
0.00018861646174
0.00018861646174
0.00018861646174
0.000469215051713
0.00045007382149
0.000431713441527
0.0004141020577
0.00039720911534
0.00038100530624
0.00036546251781
0.00035055378423
0.00033625323982
0.00032253607399
0.0003093784883
0.00029675765517
0.00028465167822
0.00027303955435
0.00026190113722
0.00025121710237
0.00024096891367
0.00023113879113
0.00022170968012
0.00021266522169
0.00020398972427
0.00019566813641
0.00018768602069
0.00018861646174
0.00018861646174
0.00018861646174
0.00018861646175
0.00018861646174
0.00018861646174
0.00018861646174
0.00018861646174
0.00018861646174
0.00018861646175
0.00018861646174
0.00018861646174
0.00018861646174
0.000469215051713
0.00045007382149
0.000431713441527
0.0004141020577
0.00039720911534
0.00038100530624
0.00036546251781
0.00035055378423
0.00033625323982
0.00032253607399
0.0003093784883
0.00029675765517
0.00028465167822
0.00027303955435
0.00026190113722
0.00025121710237
0.00024096891367
0.00023113879113
0.00022170968012
0.00021266522169
0.00020398972427
0.00019566813641
0.00018768602069
0.00018861646174
0.00018861646174
0.00018861646174
0.00018861646175
0.00018861646174
0.00018861646174
0.00018861646174
0.00018861646174
0.00018861646174
0.00018861646175
0.00018861646174
0.00018861646174
0.00018861646174
0.000469215051713
0.00045007382149
0.000431713441527
0.0004141020577
0.00039720911534
0.00038100530624
0.00036546251781
0.00035055378423
0.00033625323982
0.00032253607399
0.0003093784883
0.00029675765517
0.00028465167822
0.00027303955435
0.00026190113722
0.00025121710237
0.00024096891367
0.00023113879113
0.00022170968012
0.00021266522169
0.00020398972427
0.00019566813641
0.00018768602069
0.00018861646174
0.00018861646174
0.00018861646174
0.00018861646175
0.00018861646174
0.00018861646174
0.00018861646174
0.00018861646174
0.00018861646174
0.00018861646175
0.00018861646174
0.00018861646174
0.00018861646174
0.000469215051713
0.00045007382149
0.000431713441527
0.0004141020577
0.00039720911534
0.00038100530624
0.00036546251781
0.00035055378423
0.00033625323982
0.00032253607399
0.0003093784883
0.00029675765517
0.00028465167822
0.00027303955435
0.00026190113722
0.00025121710237
0.00024096891367
0.00023113879113
0.00022170968012
0.00021266522169
0.00020398972427
0.00019566813641
0.00018768602069
0.00018861646174
0.00018861646174
0.00018861646174
0.00018861646175
0.00018861646174
0.00018861646174
0.00018861646174
0.00018861646174
0.00018861646174
0.00018861646175
0.00018861646174
0.00018861646174
0.00018861646174
0.000469215051713
0.00045007382149
0.000431713441527
0.0004141020577
0.00039720911534
0.00038100530624
0.00036546251781
0.00035055378423
0.00033625323982
0.00032253607399
0.0003093784883
0.00029675765517
0.00028465167822
0.00027303955435
0.00026190113722
0.00025121710237
0.00024096891367
0.00023113879113
0.00022170968012
0.00021266522169
0.00020398972427
0.00019566813641
0.00018768602069
0.00018861646174
0.00018861646174
0.00018861646174
0.00018861646175
0.00018861646174
0.00018861646174
0.00018861646174
0.00018861646174
0.00018861646174
0.00018861646175
0.00018861646174
0.00018861646174
0.00018861646174
0.000469215051713
0.00045007382149
0.000431713441527
0.0004141020577
0.00039720911534
0.00038100530624
0.00036546251781
0.00035055378423
0.00033625323982
0.00032253607399
0.0003093784883
0.00029675765517
0.00028465167822
0.00027303955435
0.00026190113722
0.00025121710237
0.00024096891367
0.00023113879113
0.00022170968012
0.00021266522169
0.00020398972427
0.00019566813641
0.00018768602069
0.00018861646174
0.00018861646174
0.00018861646174
0.00018861646175
0.00018861646174
0.00018861646174
0.00018861646174
0.00018861646174
0.00018861646174
0.00018861646175
0.00018861646174
0.00018861646174
0.00018861646174
0.000469215051713
0.00045007382149
0.000431713441527
0.0004141020577
0.00039720911534
0.00038100530624
0.00036546251781
0.00035055378423
0.00033625323982
0.00032253607399
0.0003093784883
0.00029675765517
0.00028465167822
0.00027303955435
0.00026190113722
0.00025121710237
0.00024096891367
0.00023113879113
0.00022170968012
0.00021266522169
0.00020398972427
0.00019566813641
0.00018768602069
0.00018861646174
0.00018861646174
0.00018861646174
0.00018861646175
0.00018861646174
0.00018861646174
0.00018861646174
0.00018861646174
0.00018861646174
0.00018861646175
0.00018861646174
0.00018861646174
0.00018861646174
0.000469215051713
0.00045007382149
0.000431713441527
0.0004141020577
0.00039720911534
0.00038100530624
0.00036546251781
0.00035055378423
0.00033625323982
0.00032253607399
0.0003093784883
0.00029675765517
0.00028465167822
0.00027303955435
0.00026190113722
0.00025121710237
0.00024096891367
0.00023113879113
0.00022170968012
0.00021266522169
0.00020398972427
0.00019566813641
0.00018768602069
0.00018861646174
0.00018861646174
0.00018861646174
0.00018861646175
0.00018861646174
0.00018861646174
0.00018861646174
0.00018861646174
0.00018861646174
0.00018861646175
0.00018861646174
0.00018861646174
0.00018861646174
0.000469215051713
0.00045007382149
0.000431713441527
0.0004141020577
0.00039720911534
0.00038100530624
0.00036546251781
0.00035055378423
0.00033625323982
0.00032253607399
0.0003093784883
0.00029675765517
0.00028465167822
0.00027303955435
0.00026190113722
0.00025121710237
0.00024096891367
0.00023113879113
0.00022170968012
0.00021266522169
0.00020398972427
0.00019566813641
0.00018768602069
0.00018861646174
0.00018861646174
0.00018861646174
0.00018861646175
0.00018861646174
0.00018861646174
0.00018861646174
0.00018861646174
0.00018861646174
0.00018861646175
0.00018861646174
0.00018861646174
0.00018861646174
0.000469215051713
0.00045007382149
0.000431713441527
0.0004141020577
0.00039720911534
0.00038100530624
0.00036546251781
0.00035055378423
0.00033625323982
0.00032253607399
0.0003093784883
0.00029675765517
0.00028465167822
0.00027303955435
0.00026190113722
0.00025121710237
0.00024096891367
0.00023113879113
0.00022170968012
0.00021266522169
0.00020398972427
0.00019566813641
0.00018768602069
0.00018861646174
0.00018861646174
0.00018861646174
0.00018861646175
0.00018861646174
0.00018861646174
0.00018861646174
0.00018861646174
0.00018861646174
0.00018861646175
0.00018861646174
0.00018861646174
0.00018861646174
0.000469215051713
0.00045007382149
0.000431713441527
0.0004141020577
0.00039720911534
0.00038100530624
0.00036546251781
0.00035055378423
0.00033625323982
0.00032253607399
0.0003093784883
0.00029675765517
0.00028465167822
0.00027303955435
0.00026190113722
0.00025121710237
0.00024096891367
0.00023113879113
0.00022170968012
0.00021266522169
0.00020398972427
0.00019566813641
0.00018768602069
0.00018861646174
0.00018861646174
0.00018861646174
0.00018861646175
0.00018861646174
0.00018861646174
0.00018861646174
0.00018861646174
0.00018861646174
0.00018861646175
0.00018861646174
0.00018861646174
0.00018861646174
0.000469215051713
0.00045007382149
0.000431713441527
0.0004141020577
0.00039720911534
0.00038100530624
0.00036546251781
0.00035055378423
0.00033625323982
0.00032253607399
0.0003093784883
0.00029675765517
0.00028465167822
0.00027303955435
0.00026190113722
0.00025121710237
0.00024096891367
0.00023113879113
0.00022170968012
0.00021266522169
0.00020398972427
0.00019566813641
0.00018768602069
0.00018861646174
0.00018861646174
0.00018861646174
0.00018861646175
0.00018861646174
0.00018861646174
0.00018861646174
0.00018861646174
0.00018861646174
0.00018861646175
0.00018861646174
0.00018861646174
0.00018861646174
0.000469215051713
0.00045007382149
0.000431713441527
0.0004141020577
0.00039720911534
0.00038100530624
0.00036546251781
0.00035055378423
0.00033625323982
0.00032253607399
0.0003093784883
0.00029675765517
0.00028465167822
0.00027303955435
0.00026190113722
0.00025121710237
0.00024096891367
0.00023113879113
0.00022170968012
0.00021266522169
0.00020398972427
0.00019566813641
0.00018768602069
0.00018861646174
0.00018861646174
0.00018861646174
0.00018861646175
0.00018861646174
0.00018861646174
0.00018861646174
0.00018861646174
0.00018861646174
0.00018861646175
0.00018861646174
0.00018861646174
0.00018861646174
0.000469215051713
0.00045007382149
0.000431713441527
0.0004141020577
0.00039720911534
0.00038100530624
0.00036546251781
0.00035055378423
0.00033625323982
0.00032253607399
0.0003093784883
0.00029675765517
0.00028465167822
0.00027303955435
0.00026190113722
0.00025121710237
0.00024096891367
0.00023113879113
0.00022170968012
0.00021266522169
0.00020398972427
0.00019566813641
0.00018768602069
0.00018861646174
0.00018861646174
0.00018861646174
0.00018861646175
0.00018861646174
0.00018861646174
0.00018861646174
0.00018861646174
0.00018861646174
0.00018861646175
0.00018861646174
0.00018861646174
0.00018861646174
0.000469215051713
0.00045007382149
0.000431713441527
0.0004141020577
0.00039720911534
0.00038100530624
0.00036546251781
0.00035055378423
0.00033625323982
0.00032253607399
0.0003093784883
0.00029675765517
0.00028465167822
0.00027303955435
0.00026190113722
0.00025121710237
0.00024096891367
0.00023113879113
0.00022170968012
0.00021266522169
0.00020398972427
0.00019566813641
0.00018768602069
0.00018861646174
0.00018861646174
0.00018861646174
0.00018861646175
0.00018861646174
0.00018861646174
0.00018861646174
0.00018861646174
0.00018861646174
0.00018861646175
0.00018861646174
0.00018861646174
0.00018861646174
0.000469215051713
0.00045007382149
0.000431713441527
0.0004141020577
0.00039720911534
0.00038100530624
0.00036546251781
0.00035055378423
0.00033625323982
0.00032253607399
0.0003093784883
0.00029675765517
0.00028465167822
0.00027303955435
0.00026190113722
0.00025121710237
0.00024096891367
0.00023113879113
0.00022170968012
0.00021266522169
0.00020398972427
0.00019566813641
0.00018768602069
0.00018861646174
0.00018861646174
0.00018861646174
0.00018861646175
0.00018861646174
0.00018861646174
0.00018861646174
0.00018861646174
0.00018861646174
0.00018861646175
0.00018861646174
0.00018861646174
0.00018861646174
0.000469215051713
0.00045007382149
0.000431713441527
0.0004141020577
0.00039720911534
0.00038100530624
0.00036546251781
0.00035055378423
0.00033625323982
0.00032253607399
0.0003093784883
0.00029675765517
0.00028465167822
0.00027303955435
0.00026190113722
0.00025121710237
0.00024096891367
0.00023113879113
0.00022170968012
0.00021266522169
0.00020398972427
0.00019566813641
0.00018768602069
0.00018861646174
0.00018861646174
0.00018861646174
0.00018861646175
0.00018861646174
0.00018861646174
0.00018861646174
0.00018861646174
0.00018861646174
0.00018861646175
0.00018861646174
0.00018861646174
0.00018861646174
0.000469215051713
0.00045007382149
0.000431713441527
0.0004141020577
0.00039720911534
0.00038100530624
0.00036546251781
0.00035055378423
0.00033625323982
0.00032253607399
0.0003093784883
0.00029675765517
0.00028465167822
0.00027303955435
0.00026190113722
0.00025121710237
0.00024096891367
0.00023113879113
0.00022170968012
0.00021266522169
0.00020398972427
0.00019566813641
0.00018768602069
0.00018861646174
0.00018861646174
0.00018861646174
0.00018861646175
0.00018861646174
0.00018861646174
0.00018861646174
0.00018861646174
0.00018861646174
0.00018861646175
0.00018861646174
0.00018861646174
0.00018861646174
0.000469215051713
0.00045007382149
0.000431713441527
0.0004141020577
0.00039720911534
0.00038100530624
0.00036546251781
0.00035055378423
0.00033625323982
0.00032253607399
0.0003093784883
0.00029675765517
0.00028465167822
0.00027303955435
0.00026190113722
0.00025121710237
0.00024096891367
0.00023113879113
0.00022170968012
0.00021266522169
0.00020398972427
0.00019566813641
0.00018768602069
0.00018861646174
0.00018861646174
0.00018861646174
0.00018861646175
0.00018861646174
0.00018861646174
0.00018861646174
0.00018861646174
0.00018861646174
0.00018861646175
0.00018861646174
0.00018861646174
0.00018861646174
0.000469215051713
0.00045007382149
0.000431713441527
0.0004141020577
0.00039720911534
0.00038100530624
0.00036546251781
0.00035055378423
0.00033625323982
0.00032253607399
0.0003093784883
0.00029675765517
0.00028465167822
0.00027303955435
0.00026190113722
0.00025121710237
0.00024096891367
0.00023113879113
0.00022170968012
0.00021266522169
0.00020398972427
0.00019566813641
0.00018768602069
0.00018861646174
0.00018861646174
0.00018861646174
0.00018861646175
0.00018861646174
0.00018861646174
0.00018861646174
0.00018861646174
0.00018861646174
0.00018861646175
0.00018861646174
0.00018861646174
0.00018861646174
0.000469215051713
0.00045007382149
0.000431713441527
0.0004141020577
0.00039720911534
0.00038100530624
0.00036546251781
0.00035055378423
0.00033625323982
0.00032253607399
0.0003093784883
0.00029675765517
0.00028465167822
0.00027303955435
0.00026190113722
0.00025121710237
0.00024096891367
0.00023113879113
0.00022170968012
0.00021266522169
0.00020398972427
0.00019566813641
0.00018768602069
0.00018861646174
0.00018861646174
0.00018861646174
0.00018861646175
0.00018861646174
0.00018861646174
0.00018861646174
0.00018861646174
0.00018861646174
0.00018861646175
0.00018861646174
0.00018861646174
0.00018861646174
0.000469215051713
0.00045007382149
0.000431713441527
0.0004141020577
0.00039720911534
0.00038100530624
0.00036546251781
0.00035055378423
0.00033625323982
0.00032253607399
0.0003093784883
0.00029675765517
0.00028465167822
0.00027303955435
0.00026190113722
0.00025121710237
0.00024096891367
0.00023113879113
0.00022170968012
0.00021266522169
0.00020398972427
0.00019566813641
0.00018768602069
0.00018861646174
0.00018861646174
0.00018861646174
0.00018861646175
0.00018861646174
0.00018861646174
0.00018861646174
0.00018861646174
0.00018861646174
0.00018861646175
0.00018861646174
0.00018861646174
0.00018861646174
0.000469215051713
0.00045007382149
0.000431713441527
0.0004141020577
0.00039720911534
0.00038100530624
0.00036546251781
0.00035055378423
0.00033625323982
0.00032253607399
0.0003093784883
0.00029675765517
0.00028465167822
0.00027303955435
0.00026190113722
0.00025121710237
0.00024096891367
0.00023113879113
0.00022170968012
0.00021266522169
0.00020398972427
0.00019566813641
0.00018768602069
0.00018861646174
0.00018861646174
0.00018861646174
0.00018861646175
0.00018861646174
0.00018861646174
0.00018861646174
0.00018861646174
0.00018861646174
0.00018861646175
0.00018861646174
0.00018861646174
0.00018861646174
0.000469215051713
0.00045007382149
0.000431713441527
0.0004141020577
0.00039720911534
0.00038100530624
0.00036546251781
0.00035055378423
0.00033625323982
0.00032253607399
0.0003093784883
0.00029675765517
0.00028465167822
0.00027303955435
0.00026190113722
0.00025121710237
0.00024096891367
0.00023113879113
0.00022170968012
0.00021266522169
0.00020398972427
0.00019566813641
0.00018768602069
0.00018861646174
0.00018861646174
0.00018861646174
0.00018861646175
0.00018861646174
0.00018861646174
0.00018861646174
0.00018861646174
0.00018861646174
0.00018861646175
0.00018861646174
0.00018861646174
0.00018861646174
0.000469215051713
0.00045007382149
0.000431713441527
0.0004141020577
0.00039720911534
0.00038100530624
0.00036546251781
0.00035055378423
0.00033625323982
0.00032253607399
0.0003093784883
0.00029675765517
0.00028465167822
0.00027303955435
0.00026190113722
0.00025121710237
0.00024096891367
0.00023113879113
0.00022170968012
0.00021266522169
0.00020398972427
0.00019566813641
0.00018768602069
0.00018861646174
0.00018861646174
0.00018861646174
0.00018861646175
0.00018861646174
0.00018861646174
0.00018861646174
0.00018861646174
0.00018861646174
0.00018861646175
0.00018861646174
0.00018861646174
0.00018861646174
0.000469215051713
0.00045007382149
0.000431713441527
0.0004141020577
0.00039720911534
0.00038100530624
0.00036546251781
0.00035055378423
0.00033625323982
0.00032253607399
0.0003093784883
0.00029675765517
0.00028465167822
0.00027303955435
0.00026190113722
0.00025121710237
0.00024096891367
0.00023113879113
0.00022170968012
0.00021266522169
0.00020398972427
0.00019566813641
0.00018768602069
0.00018861646174
0.00018861646174
0.00018861646174
0.00018861646175
0.00018861646174
0.00018861646174
0.00018861646174
0.00018861646174
0.00018861646174
0.00018861646175
0.00018861646174
0.00018861646174
0.00018861646174
0.000469215051713
0.00045007382149
0.000431713441527
0.0004141020577
0.00039720911534
0.00038100530624
0.00036546251781
0.00035055378423
0.00033625323982
0.00032253607399
0.0003093784883
0.00029675765517
0.00028465167822
0.00027303955435
0.00026190113722
0.00025121710237
0.00024096891367
0.00023113879113
0.00022170968012
0.00021266522169
0.00020398972427
0.00019566813641
0.00018768602069
0.00018861646174
0.00018861646174
0.00018861646174
0.00018861646175
0.00018861646174
0.00018861646174
0.00018861646174
0.00018861646174
0.00018861646174
0.00018861646175
0.00018861646174
0.00018861646174
0.00018861646174
0.000469215051713
0.00045007382149
0.000431713441527
0.0004141020577
0.00039720911534
0.00038100530624
0.00036546251781
0.00035055378423
0.00033625323982
0.00032253607399
0.0003093784883
0.00029675765517
0.00028465167822
0.00027303955435
0.00026190113722
0.00025121710237
0.00024096891367
0.00023113879113
0.00022170968012
0.00021266522169
0.00020398972427
0.00019566813641
0.00018768602069
0.00018861646174
0.00018861646174
0.00018861646174
0.00018861646175
0.00018861646174
0.00018861646174
0.00018861646174
0.00018861646174
0.00018861646174
0.00018861646175
0.00018861646174
0.00018861646174
0.00018861646174
0.000469215051713
0.00045007382149
0.000431713441527
0.0004141020577
0.00039720911534
0.00038100530624
0.00036546251781
0.00035055378423
0.00033625323982
0.00032253607399
0.0003093784883
0.00029675765517
0.00028465167822
0.00027303955435
0.00026190113722
0.00025121710237
0.00024096891367
0.00023113879113
0.00022170968012
0.00021266522169
0.00020398972427
0.00019566813641
0.00018768602069
0.00018861646174
0.00018861646174
0.00018861646174
0.00018861646175
0.00018861646174
0.00018861646174
0.00018861646174
0.00018861646174
0.00018861646174
0.00018861646175
0.00018861646174
0.00018861646174
0.00018861646174
0.000469215051713
0.00045007382149
0.000431713441527
0.0004141020577
0.00039720911534
0.00038100530624
0.00036546251781
0.00035055378423
0.00033625323982
0.00032253607399
0.0003093784883
0.00029675765517
0.00028465167822
0.00027303955435
0.00026190113722
0.00025121710237
0.00024096891367
0.00023113879113
0.00022170968012
0.00021266522169
0.00020398972427
0.00019566813641
0.00018768602069
0.00018861646174
0.00018861646174
0.00018861646174
0.00018861646175
0.00018861646174
0.00018861646174
0.00018861646174
0.00018861646174
0.00018861646174
0.00018861646175
0.00018861646174
0.00018861646174
0.00018861646174
0.000469215051713
0.00045007382149
0.000431713441527
0.0004141020577
0.00039720911534
0.00038100530624
0.00036546251781
0.00035055378423
0.00033625323982
0.00032253607399
0.0003093784883
0.00029675765517
0.00028465167822
0.00027303955435
0.00026190113722
0.00025121710237
0.00024096891367
0.00023113879113
0.00022170968012
0.00021266522169
0.00020398972427
0.00019566813641
0.00018768602069
0.00018861646174
0.00018861646174
0.00018861646174
0.00018861646175
0.00018861646174
0.00018861646174
0.00018861646174
0.00018861646174
0.00018861646174
0.00018861646175
0.00018861646174
0.00018861646174
0.00018861646174
0.000469215051713
0.00045007382149
0.000431713441527
0.0004141020577
0.00039720911534
0.00038100530624
0.00036546251781
0.00035055378423
0.00033625323982
0.00032253607399
0.0003093784883
0.00029675765517
0.00028465167822
0.00027303955435
0.00026190113722
0.00025121710237
0.00024096891367
0.00023113879113
0.00022170968012
0.00021266522169
0.00020398972427
0.00019566813641
0.00018768602069
0.00018861646174
0.00018861646174
0.00018861646174
0.00018861646175
0.00018861646174
0.00018861646174
0.00018861646174
0.00018861646174
0.00018861646174
0.00018861646175
0.00018861646174
0.00018861646174
0.00018861646174
0.000469215051713
0.00045007382149
0.000431713441527
0.0004141020577
0.00039720911534
0.00038100530624
0.00036546251781
0.00035055378423
0.00033625323982
0.00032253607399
0.0003093784883
0.00029675765517
0.00028465167822
0.00027303955435
0.00026190113722
0.00025121710237
0.00024096891367
0.00023113879113
0.00022170968012
0.00021266522169
0.00020398972427
0.00019566813641
0.00018768602069
0.00018861646174