/*--------------------------------*- C++ -*----------------------------------*\
| =========                 |                                                 |
| \\      /  F ield         | OpenFOAM: The Open Source CFD Toolbox           |
|  \\    /   O peration     | Version:  2112                                  |
|   \\  /    A nd           | Website:  www.openfoam.com                      |
|    \\/     M anipulation  |                                                 |
\*---------------------------------------------------------------------------*/
FoamFile
{
    version     2.0;
    format      ascii;
    arch        "LSB;label=64;scalar=64";
    class       scalarField;
    location    "constant";
    object      yDim;
}
// * * * * * * * * * * * * * * * * * * * * * * * * * * * * * * * * * * * * * //


14229
(
4.09727431693e-05
8.02740380189e-05
0.000117972069866
0.000154132242465
0.00018881729148
0.000222087393328
0.000254000269578
0.000284611287098
0.00031397355411
0.000342138012335
0.000369153525364
0.000395066963444
0.000419923284788
0.000443765613576
0.000466635314776
0.000488572065904
0.000509613925869
0.000529797400997
0.000549157508368
0.000567727836574
0.000585540603985
0.000602626714651
0.000619015811919
0.000635486157054
0.000651956502189
0.000668426847325
0.000684897192461
0.000701367537595
0.000717837882731
0.000734308227867
0.000750778573001
0.000767248918137
0.000783719263273
0.000800189608409
0.000816659953543
0.000833130298679
4.09727431693e-05
8.02740380189e-05
0.000117972069866
0.000154132242465
0.00018881729148
0.000222087393328
0.000254000269578
0.000284611287098
0.00031397355411
0.000342138012335
0.000369153525364
0.000395066963444
0.000419923284788
0.000443765613576
0.000466635314776
0.000488572065904
0.000509613925869
0.000529797400997
0.000549157508368
0.000567727836574
0.000585540603985
0.000602626714651
0.000619015811919
0.000635486157054
0.000651956502189
0.000668426847325
0.000684897192461
0.000701367537595
0.000717837882731
0.000734308227867
0.000750778573001
0.000767248918137
0.000783719263273
0.000800189608409
0.000816659953543
0.000833130298679
4.09727431693e-05
8.02740380189e-05
0.000117972069866
0.000154132242465
0.00018881729148
0.000222087393328
0.000254000269578
0.000284611287098
0.00031397355411
0.000342138012335
0.000369153525364
0.000395066963444
0.000419923284788
0.000443765613576
0.000466635314776
0.000488572065904
0.000509613925869
0.000529797400997
0.000549157508368
0.000567727836574
0.000585540603985
0.000602626714651
0.000619015811919
0.000635486157054
0.000651956502189
0.000668426847325
0.000684897192461
0.000701367537595
0.000717837882731
0.000734308227867
0.000750778573001
0.000767248918137
0.000783719263273
0.000800189608409
0.000816659953543
0.000833130298679
4.09727431693e-05
8.02740380189e-05
0.000117972069866
0.000154132242465
0.00018881729148
0.000222087393328
0.000254000269578
0.000284611287098
0.00031397355411
0.000342138012335
0.000369153525364
0.000395066963444
0.000419923284788
0.000443765613576
0.000466635314776
0.000488572065904
0.000509613925869
0.000529797400997
0.000549157508368
0.000567727836574
0.000585540603985
0.000602626714651
0.000619015811919
0.000635486157054
0.000651956502189
0.000668426847325
0.000684897192461
0.000701367537595
0.000717837882731
0.000734308227867
0.000750778573001
0.000767248918137
0.000783719263273
0.000800189608409
0.000816659953543
0.000833130298679
4.09727431693e-05
8.02740380189e-05
0.000117972069866
0.000154132242465
0.00018881729148
0.000222087393328
0.000254000269578
0.000284611287098
0.00031397355411
0.000342138012335
0.000369153525364
0.000395066963444
0.000419923284788
0.000443765613576
0.000466635314776
0.000488572065904
0.000509613925869
0.000529797400997
0.000549157508368
0.000567727836574
0.000585540603985
0.000602626714651
0.000619015811919
0.000635486157054
0.000651956502189
0.000668426847325
0.000684897192461
0.000701367537595
0.000717837882731
0.000734308227867
0.000750778573001
0.000767248918137
0.000783719263273
0.000800189608409
0.000816659953543
0.000833130298679
4.09727431693e-05
8.02740380189e-05
0.000117972069866
0.000154132242465
0.00018881729148
0.000222087393328
0.000254000269578
0.000284611287098
0.00031397355411
0.000342138012335
0.000369153525364
0.000395066963444
0.000419923284788
0.000443765613576
0.000466635314776
0.000488572065904
0.000509613925869
0.000529797400997
0.000549157508368
0.000567727836574
0.000585540603985
0.000602626714651
0.000619015811919
0.000635486157054
0.000651956502189
0.000668426847325
0.000684897192461
0.000701367537595
0.000717837882731
0.000734308227867
0.000750778573001
0.000767248918137
0.000783719263273
0.000800189608409
0.000816659953543
0.000833130298679
4.09727431693e-05
8.02740380189e-05
0.000117972069866
0.000154132242465
0.00018881729148
0.000222087393328
0.000254000269578
0.000284611287098
0.00031397355411
0.000342138012335
0.000369153525364
0.000395066963444
0.000419923284788
0.000443765613576
0.000466635314776
0.000488572065904
0.000509613925869
0.000529797400997
0.000549157508368
0.000567727836574
0.000585540603985
0.000602626714651
0.000619015811919
0.000635486157054
0.000651956502189
0.000668426847325
0.000684897192461
0.000701367537595
0.000717837882731
0.000734308227867
0.000750778573001
0.000767248918137
0.000783719263273
0.000800189608409
0.000816659953543
0.000833130298679
4.09727431693e-05
8.02740380189e-05
0.000117972069866
0.000154132242465
0.00018881729148
0.000222087393328
0.000254000269578
0.000284611287098
0.00031397355411
0.000342138012335
0.000369153525364
0.000395066963444
0.000419923284788
0.000443765613576
0.000466635314776
0.000488572065904
0.000509613925869
0.000529797400997
0.000549157508368
0.000567727836574
0.000585540603985
0.000602626714651
0.000619015811919
0.000635486157054
0.000651956502189
0.000668426847325
0.000684897192461
0.000701367537595
0.000717837882731
0.000734308227867
0.000750778573001
0.000767248918137
0.000783719263273
0.000800189608409
0.000816659953543
0.000833130298679
4.09727431693e-05
8.02740380189e-05
0.000117972069866
0.000154132242465
0.00018881729148
0.000222087393328
0.000254000269578
0.000284611287098
0.00031397355411
0.000342138012335
0.000369153525364
0.000395066963444
0.000419923284788
0.000443765613576
0.000466635314776
0.000488572065904
0.000509613925869
0.000529797400997
0.000549157508368
0.000567727836574
0.000585540603985
0.000602626714651
0.000619015811919
0.000635486157054
0.000651956502189
0.000668426847325
0.000684897192461
0.000701367537595
0.000717837882731
0.000734308227867
0.000750778573001
0.000767248918137
0.000783719263273
0.000800189608409
0.000816659953543
0.000833130298679
4.09727431693e-05
8.02740380189e-05
0.000117972069866
0.000154132242465
0.00018881729148
0.000222087393328
0.000254000269578
0.000284611287098
0.00031397355411
0.000342138012335
0.000369153525364
0.000395066963444
0.000419923284788
0.000443765613576
0.000466635314776
0.000488572065904
0.000509613925869
0.000529797400997
0.000549157508368
0.000567727836574
0.000585540603985
0.000602626714651
0.000619015811919
0.000635486157054
0.000651956502189
0.000668426847325
0.000684897192461
0.000701367537595
0.000717837882731
0.000734308227867
0.000750778573001
0.000767248918137
0.000783719263273
0.000800189608409
0.000816659953543
0.000833130298679
4.09727431693e-05
8.02740380189e-05
0.000117972069866
0.000154132242465
0.00018881729148
0.000222087393328
0.000254000269578
0.000284611287098
0.00031397355411
0.000342138012335
0.000369153525364
0.000395066963444
0.000419923284788
0.000443765613576
0.000466635314776
0.000488572065904
0.000509613925869
0.000529797400997
0.000549157508368
0.000567727836574
0.000585540603985
0.000602626714651
0.000619015811919
0.000635486157054
0.000651956502189
0.000668426847325
0.000684897192461
0.000701367537595
0.000717837882731
0.000734308227867
0.000750778573001
0.000767248918137
0.000783719263273
0.000800189608409
0.000816659953543
0.000833130298679
4.09727431693e-05
8.02740380189e-05
0.000117972069866
0.000154132242465
0.00018881729148
0.000222087393328
0.000254000269578
0.000284611287098
0.00031397355411
0.000342138012335
0.000369153525364
0.000395066963444
0.000419923284788
0.000443765613576
0.000466635314776
0.000488572065904
0.000509613925869
0.000529797400997
0.000549157508368
0.000567727836574
0.000585540603985
0.000602626714651
0.000619015811919
0.000635486157054
0.000651956502189
0.000668426847325
0.000684897192461
0.000701367537595
0.000717837882731
0.000734308227867
0.000750778573001
0.000767248918137
0.000783719263273
0.000800189608409
0.000816659953543
0.000833130298679
4.09727431693e-05
8.02740380189e-05
0.000117972069866
0.000154132242465
0.00018881729148
0.000222087393328
0.000254000269578
0.000284611287098
0.00031397355411
0.000342138012335
0.000369153525364
0.000395066963444
0.000419923284788
0.000443765613576
0.000466635314776
0.000488572065904
0.000509613925869
0.000529797400997
0.000549157508368
0.000567727836574
0.000585540603985
0.000602626714651
0.000619015811919
0.000635486157054
0.000651956502189
0.000668426847325
0.000684897192461
0.000701367537595
0.000717837882731
0.000734308227867
0.000750778573001
0.000767248918137
0.000783719263273
0.000800189608409
0.000816659953543
0.000833130298679
4.09727431693e-05
8.02740380189e-05
0.000117972069866
0.000154132242465
0.00018881729148
0.000222087393328
0.000254000269578
0.000284611287098
0.00031397355411
0.000342138012335
0.000369153525364
0.000395066963444
0.000419923284788
0.000443765613576
0.000466635314776
0.000488572065904
0.000509613925869
0.000529797400997
0.000549157508368
0.000567727836574
0.000585540603985
0.000602626714651
0.000619015811919
0.000635486157054
0.000651956502189
0.000668426847325
0.000684897192461
0.000701367537595
0.000717837882731
0.000734308227867
0.000750778573001
0.000767248918137
0.000783719263273
0.000800189608409
0.000816659953543
0.000833130298679
4.09727431693e-05
8.02740380189e-05
0.000117972069866
0.000154132242465
0.00018881729148
0.000222087393328
0.000254000269578
0.000284611287098
0.00031397355411
0.000342138012335
0.000369153525364
0.000395066963444
0.000419923284788
0.000443765613576
0.000466635314776
0.000488572065904
0.000509613925869
0.000529797400997
0.000549157508368
0.000567727836574
0.000585540603985
0.000602626714651
0.000619015811919
0.000635486157054
0.000651956502189
0.000668426847325
0.000684897192461
0.000701367537595
0.000717837882731
0.000734308227867
0.000750778573001
0.000767248918137
0.000783719263273
0.000800189608409
0.000816659953543
0.000833130298679
4.09727431693e-05
8.02740380189e-05
0.000117972069866
0.000154132242465
0.00018881729148
0.000222087393328
0.000254000269578
0.000284611287098
0.00031397355411
0.000342138012335
0.000369153525364
0.000395066963444
0.000419923284788
0.000443765613576
0.000466635314776
0.000488572065904
0.000509613925869
0.000529797400997
0.000549157508368
0.000567727836574
0.000585540603985
0.000602626714651
0.000619015811919
0.000635486157054
0.000651956502189
0.000668426847325
0.000684897192461
0.000701367537595
0.000717837882731
0.000734308227867
0.000750778573001
0.000767248918137
0.000783719263273
0.000800189608409
0.000816659953543
0.000833130298679
4.09727431693e-05
8.02740380189e-05
0.000117972069866
0.000154132242465
0.00018881729148
0.000222087393328
0.000254000269578
0.000284611287098
0.00031397355411
0.000342138012335
0.000369153525364
0.000395066963444
0.000419923284788
0.000443765613576
0.000466635314776
0.000488572065904
0.000509613925869
0.000529797400997
0.000549157508368
0.000567727836574
0.000585540603985
0.000602626714651
0.000619015811919
0.000635486157054
0.000651956502189
0.000668426847325
0.000684897192461
0.000701367537595
0.000717837882731
0.000734308227867
0.000750778573001
0.000767248918137
0.000783719263273
0.000800189608409
0.000816659953543
0.000833130298679
4.09727431693e-05
8.02740380189e-05
0.000117972069866
0.000154132242465
0.00018881729148
0.000222087393328
0.000254000269578
0.000284611287098
0.00031397355411
0.000342138012335
0.000369153525364
0.000395066963444
0.000419923284788
0.000443765613576
0.000466635314776
0.000488572065904
0.000509613925869
0.000529797400997
0.000549157508368
0.000567727836574
0.000585540603985
0.000602626714651
0.000619015811919
0.000635486157054
0.000651956502189
0.000668426847325
0.000684897192461
0.000701367537595
0.000717837882731
0.000734308227867
0.000750778573001
0.000767248918137
0.000783719263273
0.000800189608409
0.000816659953543
0.000833130298679
4.09727431693e-05
8.02740380189e-05
0.000117972069866
0.000154132242465
0.00018881729148
0.000222087393328
0.000254000269578
0.000284611287098
0.00031397355411
0.000342138012335
0.000369153525364
0.000395066963444
0.000419923284788
0.000443765613576
0.000466635314776
0.000488572065904
0.000509613925869
0.000529797400997
0.000549157508368
0.000567727836574
0.000585540603985
0.000602626714651
0.000619015811919
0.000635486157054
0.000651956502189
0.000668426847325
0.000684897192461
0.000701367537595
0.000717837882731
0.000734308227867
0.000750778573001
0.000767248918137
0.000783719263273
0.000800189608409
0.000816659953543
0.000833130298679
4.09727431693e-05
8.02740380189e-05
0.000117972069866
0.000154132242465
0.00018881729148
0.000222087393328
0.000254000269578
0.000284611287098
0.00031397355411
0.000342138012335
0.000369153525364
0.000395066963444
0.000419923284788
0.000443765613576
0.000466635314776
0.000488572065904
0.000509613925869
0.000529797400997
0.000549157508368
0.000567727836574
0.000585540603985
0.000602626714651
0.000619015811919
0.000635486157054
0.000651956502189
0.000668426847325
0.000684897192461
0.000701367537595
0.000717837882731
0.000734308227867
0.000750778573001
0.000767248918137
0.000783719263273
0.000800189608409
0.000816659953543
0.000833130298679
4.09727431693e-05
8.02740380189e-05
0.000117972069866
0.000154132242465
0.00018881729148
0.000222087393328
0.000254000269578
0.000284611287098
0.00031397355411
0.000342138012335
0.000369153525364
0.000395066963444
0.000419923284788
0.000443765613576
0.000466635314776
0.000488572065904
0.000509613925869
0.000529797400997
0.000549157508368
0.000567727836574
0.000585540603985
0.000602626714651
0.000619015811919
0.000635486157054
0.000651956502189
0.000668426847325
0.000684897192461
0.000701367537595
0.000717837882731
0.000734308227867
0.000750778573001
0.000767248918137
0.000783719263273
0.000800189608409
0.000816659953543
0.000833130298679
4.09727431693e-05
8.02740380189e-05
0.000117972069866
0.000154132242465
0.00018881729148
0.000222087393328
0.000254000269578
0.000284611287098
0.00031397355411
0.000342138012335
0.000369153525364
0.000395066963444
0.000419923284788
0.000443765613576
0.000466635314776
0.000488572065904
0.000509613925869
0.000529797400997
0.000549157508368
0.000567727836574
0.000585540603985
0.000602626714651
0.000619015811919
0.000635486157054
0.000651956502189
0.000668426847325
0.000684897192461
0.000701367537595
0.000717837882731
0.000734308227867
0.000750778573001
0.000767248918137
0.000783719263273
0.000800189608409
0.000816659953543
0.000833130298679
4.09727431693e-05
8.02740380189e-05
0.000117972069866
0.000154132242465
0.00018881729148
0.000222087393328
0.000254000269578
0.000284611287098
0.00031397355411
0.000342138012335
0.000369153525364
0.000395066963444
0.000419923284788
0.000443765613576
0.000466635314776
0.000488572065904
0.000509613925869
0.000529797400997
0.000549157508368
0.000567727836574
0.000585540603985
0.000602626714651
0.000619015811919
0.000635486157054
0.000651956502189
0.000668426847325
0.000684897192461
0.000701367537595
0.000717837882731
0.000734308227867
0.000750778573001
0.000767248918137
0.000783719263273
0.000800189608409
0.000816659953543
0.000833130298679
4.09727431693e-05
8.02740380189e-05
0.000117972069866
0.000154132242465
0.00018881729148
0.000222087393328
0.000254000269578
0.000284611287098
0.00031397355411
0.000342138012335
0.000369153525364
0.000395066963444
0.000419923284788
0.000443765613576
0.000466635314776
0.000488572065904
0.000509613925869
0.000529797400997
0.000549157508368
0.000567727836574
0.000585540603985
0.000602626714651
0.000619015811919
0.000635486157054
0.000651956502189
0.000668426847325
0.000684897192461
0.000701367537595
0.000717837882731
0.000734308227867
0.000750778573001
0.000767248918137
0.000783719263273
0.000800189608409
0.000816659953543
0.000833130298679
4.09727431693e-05
8.02740380189e-05
0.000117972069866
0.000154132242465
0.00018881729148
0.000222087393328
0.000254000269578
0.000284611287098
0.00031397355411
0.000342138012335
0.000369153525364
0.000395066963444
0.000419923284788
0.000443765613576
0.000466635314776
0.000488572065904
0.000509613925869
0.000529797400997
0.000549157508368
0.000567727836574
0.000585540603985
0.000602626714651
0.000619015811919
0.000635486157054
0.000651956502189
0.000668426847325
0.000684897192461
0.000701367537595
0.000717837882731
0.000734308227867
0.000750778573001
0.000767248918137
0.000783719263273
0.000800189608409
0.000816659953543
0.000833130298679
4.09727431693e-05
8.02740380189e-05
0.000117972069866
0.000154132242465
0.00018881729148
0.000222087393328
0.000254000269578
0.000284611287098
0.00031397355411
0.000342138012335
0.000369153525364
0.000395066963444
0.000419923284788
0.000443765613576
0.000466635314776
0.000488572065904
0.000509613925869
0.000529797400997
0.000549157508368
0.000567727836574
0.000585540603985
0.000602626714651
0.000619015811919
0.000635486157054
0.000651956502189
0.000668426847325
0.000684897192461
0.000701367537595
0.000717837882731
0.000734308227867
0.000750778573001
0.000767248918137
0.000783719263273
0.000800189608409
0.000816659953543
0.000833130298679
4.09727431693e-05
8.02740380189e-05
0.000117972069866
0.000154132242465
0.00018881729148
0.000222087393328
0.000254000269578
0.000284611287098
0.00031397355411
0.000342138012335
0.000369153525364
0.000395066963444
0.000419923284788
0.000443765613576
0.000466635314776
0.000488572065904
0.000509613925869
0.000529797400997
0.000549157508368
0.000567727836574
0.000585540603985
0.000602626714651
0.000619015811919
0.000635486157054
0.000651956502189
0.000668426847325
0.000684897192461
0.000701367537595
0.000717837882731
0.000734308227867
0.000750778573001
0.000767248918137
0.000783719263273
0.000800189608409
0.000816659953543
0.000833130298679
4.09727431693e-05
8.02740380189e-05
0.000117972069866
0.000154132242465
0.00018881729148
0.000222087393328
0.000254000269578
0.000284611287098
0.00031397355411
0.000342138012335
0.000369153525364
0.000395066963444
0.000419923284788
0.000443765613576
0.000466635314776
0.000488572065904
0.000509613925869
0.000529797400997
0.000549157508368
0.000567727836574
0.000585540603985
0.000602626714651
0.000619015811919
0.000635486157054
0.000651956502189
0.000668426847325
0.000684897192461
0.000701367537595
0.000717837882731
0.000734308227867
0.000750778573001
0.000767248918137
0.000783719263273
0.000800189608409
0.000816659953543
0.000833130298679
4.09727431693e-05
8.02740380189e-05
0.000117972069866
0.000154132242465
0.00018881729148
0.000222087393328
0.000254000269578
0.000284611287098
0.00031397355411
0.000342138012335
0.000369153525364
0.000395066963444
0.000419923284788
0.000443765613576
0.000466635314776
0.000488572065904
0.000509613925869
0.000529797400997
0.000549157508368
0.000567727836574
0.000585540603985
0.000602626714651
0.000619015811919
0.000635486157054
0.000651956502189
0.000668426847325
0.000684897192461
0.000701367537595
0.000717837882731
0.000734308227867
0.000750778573001
0.000767248918137
0.000783719263273
0.000800189608409
0.000816659953543
0.000833130298679
4.09727431693e-05
8.02740380189e-05
0.000117972069866
0.000154132242465
0.00018881729148
0.000222087393328
0.000254000269578
0.000284611287098
0.00031397355411
0.000342138012335
0.000369153525364
0.000395066963444
0.000419923284788
0.000443765613576
0.000466635314776
0.000488572065904
0.000509613925869
0.000529797400997
0.000549157508368
0.000567727836574
0.000585540603985
0.000602626714651
0.000619015811919
0.000635486157054
0.000651956502189
0.000668426847325
0.000684897192461
0.000701367537595
0.000717837882731
0.000734308227867
0.000750778573001
0.000767248918137
0.000783719263273
0.000800189608409
0.000816659953543
0.000833130298679
4.09727431693e-05
8.02740380189e-05
0.000117972069866
0.000154132242465
0.00018881729148
0.000222087393328
0.000254000269578
0.000284611287098
0.00031397355411
0.000342138012335
0.000369153525364
0.000395066963444
0.000419923284788
0.000443765613576
0.000466635314776
0.000488572065904
0.000509613925869
0.000529797400997
0.000549157508368
0.000567727836574
0.000585540603985
0.000602626714651
0.000619015811919
0.000635486157054
0.000651956502189
0.000668426847325
0.000684897192461
0.000701367537595
0.000717837882731
0.000734308227867
0.000750778573001
0.000767248918137
0.000783719263273
0.000800189608409
0.000816659953543
0.000833130298679
4.09727431693e-05
8.02740380189e-05
0.000117972069866
0.000154132242465
0.00018881729148
0.000222087393328
0.000254000269578
0.000284611287098
0.00031397355411
0.000342138012335
0.000369153525364
0.000395066963444
0.000419923284788
0.000443765613576
0.000466635314776
0.000488572065904
0.000509613925869
0.000529797400997
0.000549157508368
0.000567727836574
0.000585540603985
0.000602626714651
0.000619015811919
0.000635486157054
0.000651956502189
0.000668426847325
0.000684897192461
0.000701367537595
0.000717837882731
0.000734308227867
0.000750778573001
0.000767248918137
0.000783719263273
0.000800189608409
0.000816659953543
0.000833130298679
4.09727431693e-05
8.02740380189e-05
0.000117972069866
0.000154132242465
0.00018881729148
0.000222087393328
0.000254000269578
0.000284611287098
0.00031397355411
0.000342138012335
0.000369153525364
0.000395066963444
0.000419923284788
0.000443765613576
0.000466635314776
0.000488572065904
0.000509613925869
0.000529797400997
0.000549157508368
0.000567727836574
0.000585540603985
0.000602626714651
0.000619015811919
0.000635486157054
0.000651956502189
0.000668426847325
0.000684897192461
0.000701367537595
0.000717837882731
0.000734308227867
0.000750778573001
0.000767248918137
0.000783719263273
0.000800189608409
0.000816659953543
0.000833130298679
4.09727431693e-05
8.02740380189e-05
0.000117972069866
0.000154132242465
0.00018881729148
0.000222087393328
0.000254000269578
0.000284611287098
0.00031397355411
0.000342138012335
0.000369153525364
0.000395066963444
0.000419923284788
0.000443765613576
0.000466635314776
0.000488572065904
0.000509613925869
0.000529797400997
0.000549157508368
0.000567727836574
0.000585540603985
0.000602626714651
0.000619015811919
0.000635486157054
0.000651956502189
0.000668426847325
0.000684897192461
0.000701367537595
0.000717837882731
0.000734308227867
0.000750778573001
0.000767248918137
0.000783719263273
0.000800189608409
0.000816659953543
0.000833130298679
4.09727431693e-05
8.02740380189e-05
0.000117972069866
0.000154132242465
0.00018881729148
0.000222087393328
0.000254000269578
0.000284611287098
0.00031397355411
0.000342138012335
0.000369153525364
0.000395066963444
0.000419923284788
0.000443765613576
0.000466635314776
0.000488572065904
0.000509613925869
0.000529797400997
0.000549157508368
0.000567727836574
0.000585540603985
0.000602626714651
0.000619015811919
0.000635486157054
0.000651956502189
0.000668426847325
0.000684897192461
0.000701367537595
0.000717837882731
0.000734308227867
0.000750778573001
0.000767248918137
0.000783719263273
0.000800189608409
0.000816659953543
0.000833130298679
4.09727431693e-05
8.02740380189e-05
0.000117972069866
0.000154132242465
0.00018881729148
0.000222087393328
0.000254000269578
0.000284611287098
0.00031397355411
0.000342138012335
0.000369153525364
0.000395066963444
0.000419923284788
0.000443765613576
0.000466635314776
0.000488572065904
0.000509613925869
0.000529797400997
0.000549157508368
0.000567727836574
0.000585540603985
0.000602626714651
0.000619015811919
0.000635486157054
0.000651956502189
0.000668426847325
0.000684897192461
0.000701367537595
0.000717837882731
0.000734308227867
0.000750778573001
0.000767248918137
0.000783719263273
0.000800189608409
0.000816659953543
0.000833130298679
4.09727431693e-05
8.02740380189e-05
0.000117972069866
0.000154132242465
0.00018881729148
0.000222087393328
0.000254000269578
0.000284611287098
0.00031397355411
0.000342138012335
0.000369153525364
0.000395066963444
0.000419923284788
0.000443765613576
0.000466635314776
0.000488572065904
0.000509613925869
0.000529797400997
0.000549157508368
0.000567727836574
0.000585540603985
0.000602626714651
0.000619015811919
0.000635486157054
0.000651956502189
0.000668426847325
0.000684897192461
0.000701367537595
0.000717837882731
0.000734308227867
0.000750778573001
0.000767248918137
0.000783719263273
0.000800189608409
0.000816659953543
0.000833130298679
4.09727431693e-05
8.02740380189e-05
0.000117972069866
0.000154132242465
0.00018881729148
0.000222087393328
0.000254000269578
0.000284611287098
0.00031397355411
0.000342138012335
0.000369153525364
0.000395066963444
0.000419923284788
0.000443765613576
0.000466635314776
0.000488572065904
0.000509613925869
0.000529797400997
0.000549157508368
0.000567727836574
0.000585540603985
0.000602626714651
0.000619015811919
0.000635486157054
0.000651956502189
0.000668426847325
0.000684897192461
0.000701367537595
0.000717837882731
0.000734308227867
0.000750778573001
0.000767248918137
0.000783719263273
0.000800189608409
0.000816659953543
0.000833130298679
4.09727431693e-05
8.02740380189e-05
0.000117972069866
0.000154132242465
0.00018881729148
0.000222087393328
0.000254000269578
0.000284611287098
0.00031397355411
0.000342138012335
0.000369153525364
0.000395066963444
0.000419923284788
0.000443765613576
0.000466635314776
0.000488572065904
0.000509613925869
0.000529797400997
0.000549157508368
0.000567727836574
0.000585540603985
0.000602626714651
0.000619015811919
0.000635486157054
0.000651956502189
0.000668426847325
0.000684897192461
0.000701367537595
0.000717837882731
0.000734308227867
0.000750778573001
0.000767248918137
0.000783719263273
0.000800189608409
0.000816659953543
0.000833130298679
4.09727431693e-05
8.02740380189e-05
0.000117972069866
0.000154132242465
0.00018881729148
0.000222087393328
0.000254000269578
0.000284611287098
0.00031397355411
0.000342138012335
0.000369153525364
0.000395066963444
0.000419923284788
0.000443765613576
0.000466635314776
0.000488572065904
0.000509613925869
0.000529797400997
0.000549157508368
0.000567727836574
0.000585540603985
0.000602626714651
0.000619015811919
0.000635486157054
0.000651956502189
0.000668426847325
0.000684897192461
0.000701367537595
0.000717837882731
0.000734308227867
0.000750778573001
0.000767248918137
0.000783719263273
0.000800189608409
0.000816659953543
0.000833130298679
4.09727431693e-05
8.02740380189e-05
0.000117972069866
0.000154132242465
0.00018881729148
0.000222087393328
0.000254000269578
0.000284611287098
0.00031397355411
0.000342138012335
0.000369153525364
0.000395066963444
0.000419923284788
0.000443765613576
0.000466635314776
0.000488572065904
0.000509613925869
0.000529797400997
0.000549157508368
0.000567727836574
0.000585540603985
0.000602626714651
0.000619015811919
0.000635486157054
0.000651956502189
0.000668426847325
0.000684897192461
0.000701367537595
0.000717837882731
0.000734308227867
0.000750778573001
0.000767248918137
0.000783719263273
0.000800189608409
0.000816659953543
0.000833130298679
4.09727431693e-05
8.02740380189e-05
0.000117972069866
0.000154132242465
0.00018881729148
0.000222087393328
0.000254000269578
0.000284611287098
0.00031397355411
0.000342138012335
0.000369153525364
0.000395066963444
0.000419923284788
0.000443765613576
0.000466635314776
0.000488572065904
0.000509613925869
0.000529797400997
0.000549157508368
0.000567727836574
0.000585540603985
0.000602626714651
0.000619015811919
0.000635486157054
0.000651956502189
0.000668426847325
0.000684897192461
0.000701367537595
0.000717837882731
0.000734308227867
0.000750778573001
0.000767248918137
0.000783719263273
0.000800189608409
0.000816659953543
0.000833130298679
4.09727431693e-05
8.02740380189e-05
0.000117972069866
0.000154132242465
0.00018881729148
0.000222087393328
0.000254000269578
0.000284611287098
0.00031397355411
0.000342138012335
0.000369153525364
0.000395066963444
0.000419923284788
0.000443765613576
0.000466635314776
0.000488572065904
0.000509613925869
0.000529797400997
0.000549157508368
0.000567727836574
0.000585540603985
0.000602626714651
0.000619015811919
0.000635486157054
0.000651956502189
0.000668426847325
0.000684897192461
0.000701367537595
0.000717837882731
0.000734308227867
0.000750778573001
0.000767248918137
0.000783719263273
0.000800189608409
0.000816659953543
0.000833130298679
4.09727431693e-05
8.02740380189e-05
0.000117972069866
0.000154132242465
0.00018881729148
0.000222087393328
0.000254000269578
0.000284611287098
0.00031397355411
0.000342138012335
0.000369153525364
0.000395066963444
0.000419923284788
0.000443765613576
0.000466635314776
0.000488572065904
0.000509613925869
0.000529797400997
0.000549157508368
0.000567727836574
0.000585540603985
0.000602626714651
0.000619015811919
0.000635486157054
0.000651956502189
0.000668426847325
0.000684897192461
0.000701367537595
0.000717837882731
0.000734308227867
0.000750778573001
0.000767248918137
0.000783719263273
0.000800189608409
0.000816659953543
0.000833130298679
4.09727431693e-05
8.02740380189e-05
0.000117972069866
0.000154132242465
0.00018881729148
0.000222087393328
0.000254000269578
0.000284611287098
0.00031397355411
0.000342138012335
0.000369153525364
0.000395066963444
0.000419923284788
0.000443765613576
0.000466635314776
0.000488572065904
0.000509613925869
0.000529797400997
0.000549157508368
0.000567727836574
0.000585540603985
0.000602626714651
0.000619015811919
0.000635486157054
0.000651956502189
0.000668426847325
0.000684897192461
0.000701367537595
0.000717837882731
0.000734308227867
0.000750778573001
0.000767248918137
0.000783719263273
0.000800189608409
0.000816659953543
0.000833130298679
4.09727431693e-05
8.02740380189e-05
0.000117972069866
0.000154132242465
0.00018881729148