/*--------------------------------*- C++ -*----------------------------------*\
| =========                 |                                                 |
| \\      /  F ield         | OpenFOAM: The Open Source CFD Toolbox           |
|  \\    /   O peration     | Version:  2112                                  |
|   \\  /    A nd           | Website:  www.openfoam.com                      |
|    \\/     M anipulation  |                                                 |
\*---------------------------------------------------------------------------*/
FoamFile
{
    version     2.0;
    format      ascii;
    arch        "LSB;label=64;scalar=64";
    class       scalarField;
    location    "constant";
    object      zDim;
}
// * * * * * * * * * * * * * * * * * * * * * * * * * * * * * * * * * * * * * //


14229
(
0.000846666666667
0.000846666666667
0.000846666666667
0.000846666666667
0.000846666666667
0.000846666666667
0.000846666666667
0.000846666666667
0.000846666666667
0.000846666666667
0.000846666666667
0.000846666666667
0.000846666666667
0.000846666666667
0.000846666666667
0.000846666666667
0.000846666666667
0.000846666666667
0.000846666666667
0.000846666666667
0.000846666666667
0.000846666666667
0.000846666666667
0.000846666666667
0.000846666666667
0.000846666666667
0.000846666666667
0.000846666666667
0.000846666666667
0.000846666666667
0.000846666666667
0.000846666666667
0.000846666666667
0.000846666666667
0.000846666666667
0.000846666666667
0.000846666666663
0.000846666666663
0.000846666666663
0.000846666666663
0.000846666666663
0.000846666666663
0.000846666666663
0.000846666666663
0.000846666666663
0.000846666666663
0.000846666666663
0.000846666666663
0.000846666666663
0.000846666666663
0.000846666666663
0.000846666666663
0.000846666666663
0.000846666666663
0.000846666666663
0.000846666666663
0.000846666666663
0.000846666666663
0.000846666666663
0.000846666666663
0.000846666666663
0.000846666666663
0.000846666666663
0.000846666666663
0.000846666666663
0.000846666666663
0.000846666666663
0.000846666666663
0.000846666666663
0.000846666666663
0.000846666666663
0.000846666666663
0.00084666666667
0.00084666666667
0.00084666666667
0.00084666666667
0.00084666666667
0.00084666666667
0.00084666666667
0.00084666666667
0.00084666666667
0.00084666666667
0.00084666666667
0.00084666666667
0.00084666666667
0.00084666666667
0.00084666666667
0.00084666666667
0.00084666666667
0.00084666666667
0.00084666666667
0.00084666666667
0.00084666666667
0.00084666666667
0.00084666666667
0.00084666666667
0.00084666666667
0.00084666666667
0.00084666666667
0.00084666666667
0.00084666666667
0.00084666666667
0.00084666666667
0.00084666666667
0.00084666666667
0.00084666666667
0.00084666666667
0.00084666666667
0.00084666666667
0.00084666666667
0.00084666666667
0.00084666666667
0.00084666666667
0.00084666666667
0.00084666666667
0.00084666666667
0.00084666666667
0.00084666666667
0.00084666666667
0.00084666666667
0.00084666666667
0.00084666666667
0.00084666666667
0.00084666666667
0.00084666666667
0.00084666666667
0.00084666666667
0.00084666666667
0.00084666666667
0.00084666666667
0.00084666666667
0.00084666666667
0.00084666666667
0.00084666666667
0.00084666666667
0.00084666666667
0.00084666666667
0.00084666666667
0.00084666666667
0.00084666666667
0.00084666666667
0.00084666666667
0.00084666666667
0.00084666666667
0.00084666666666
0.00084666666666
0.00084666666666
0.00084666666666
0.00084666666666
0.00084666666666
0.00084666666666
0.00084666666666
0.00084666666666
0.00084666666666
0.00084666666666
0.00084666666666
0.00084666666666
0.00084666666666
0.00084666666666
0.00084666666666
0.00084666666666
0.00084666666666
0.00084666666666
0.00084666666666
0.00084666666666
0.00084666666666
0.00084666666666
0.00084666666666
0.00084666666666
0.00084666666666
0.00084666666666
0.00084666666666
0.00084666666666
0.00084666666666
0.00084666666666
0.00084666666666
0.00084666666666
0.00084666666666
0.00084666666666
0.00084666666666
0.00084666666667
0.00084666666667
0.00084666666667
0.00084666666667
0.00084666666667
0.00084666666667
0.00084666666667
0.00084666666667
0.00084666666667
0.00084666666667
0.00084666666667
0.00084666666667
0.00084666666667
0.00084666666667
0.00084666666667
0.00084666666667
0.00084666666667
0.00084666666667
0.00084666666667
0.00084666666667
0.00084666666667
0.00084666666667
0.00084666666667
0.00084666666667
0.00084666666667
0.00084666666667
0.00084666666667
0.00084666666667
0.00084666666667
0.00084666666667
0.00084666666667
0.00084666666667
0.00084666666667
0.00084666666667
0.00084666666667
0.00084666666667
0.00084666666667
0.00084666666667
0.00084666666667
0.00084666666667
0.00084666666667
0.00084666666667
0.00084666666667
0.00084666666667
0.00084666666667
0.00084666666667
0.00084666666667
0.00084666666667
0.00084666666667
0.00084666666667
0.00084666666667
0.00084666666667
0.00084666666667
0.00084666666667
0.00084666666667
0.00084666666667
0.00084666666667
0.00084666666667
0.00084666666667
0.00084666666667
0.00084666666667
0.00084666666667
0.00084666666667
0.00084666666667
0.00084666666667
0.00084666666667
0.00084666666667
0.00084666666667
0.00084666666667
0.00084666666667
0.00084666666667
0.00084666666667
0.00084666666666
0.00084666666666
0.00084666666666
0.00084666666666
0.00084666666666
0.00084666666666
0.00084666666666
0.00084666666666
0.00084666666666
0.00084666666666
0.00084666666666
0.00084666666666
0.00084666666666
0.00084666666666
0.00084666666666
0.00084666666666
0.00084666666666
0.00084666666666
0.00084666666666
0.00084666666666
0.00084666666666
0.00084666666666
0.00084666666666
0.00084666666666
0.00084666666666
0.00084666666666
0.00084666666666
0.00084666666666
0.00084666666666
0.00084666666666
0.00084666666666
0.00084666666666
0.00084666666666
0.00084666666666
0.00084666666666
0.00084666666666
0.00084666666667
0.00084666666667
0.00084666666667
0.00084666666667
0.00084666666667
0.00084666666667
0.00084666666667
0.00084666666667
0.00084666666667
0.00084666666667
0.00084666666667
0.00084666666667
0.00084666666667
0.00084666666667
0.00084666666667
0.00084666666667
0.00084666666667
0.00084666666667
0.00084666666667
0.00084666666667
0.00084666666667
0.00084666666667
0.00084666666667
0.00084666666667
0.00084666666667
0.00084666666667
0.00084666666667
0.00084666666667
0.00084666666667
0.00084666666667
0.00084666666667
0.00084666666667
0.00084666666667
0.00084666666667
0.00084666666667
0.00084666666667
0.00084666666667
0.00084666666667
0.00084666666667
0.00084666666667
0.00084666666667
0.00084666666667
0.00084666666667
0.00084666666667
0.00084666666667
0.00084666666667
0.00084666666667
0.00084666666667
0.00084666666667
0.00084666666667
0.00084666666667
0.00084666666667
0.00084666666667
0.00084666666667
0.00084666666667
0.00084666666667
0.00084666666667
0.00084666666667
0.00084666666667
0.00084666666667
0.00084666666667
0.00084666666667
0.00084666666667
0.00084666666667
0.00084666666667
0.00084666666667
0.00084666666667
0.00084666666667
0.00084666666667
0.00084666666667
0.00084666666667
0.00084666666667
0.00084666666666
0.00084666666666
0.00084666666666
0.00084666666666
0.00084666666666
0.00084666666666
0.00084666666666
0.00084666666666
0.00084666666666
0.00084666666666
0.00084666666666
0.00084666666666
0.00084666666666
0.00084666666666
0.00084666666666
0.00084666666666
0.00084666666666
0.00084666666666
0.00084666666666
0.00084666666666
0.00084666666666
0.00084666666666
0.00084666666666
0.00084666666666
0.00084666666666
0.00084666666666
0.00084666666666
0.00084666666666
0.00084666666666
0.00084666666666
0.00084666666666
0.00084666666666
0.00084666666666
0.00084666666666
0.00084666666666
0.00084666666666
0.00084666666667
0.00084666666667
0.00084666666667
0.00084666666667
0.00084666666667
0.00084666666667
0.00084666666667
0.00084666666667
0.00084666666667
0.00084666666667
0.00084666666667
0.00084666666667
0.00084666666667
0.00084666666667
0.00084666666667
0.00084666666667
0.00084666666667
0.00084666666667
0.00084666666667
0.00084666666667
0.00084666666667
0.00084666666667
0.00084666666667
0.00084666666667
0.00084666666667
0.00084666666667
0.00084666666667
0.00084666666667
0.00084666666667
0.00084666666667
0.00084666666667
0.00084666666667
0.00084666666667
0.00084666666667
0.00084666666667
0.00084666666667
0.0008466666667
0.0008466666667
0.0008466666667
0.0008466666667
0.0008466666667
0.0008466666667
0.0008466666667
0.0008466666667
0.0008466666667
0.0008466666667
0.0008466666667
0.0008466666667
0.0008466666667
0.0008466666667
0.0008466666667
0.0008466666667
0.0008466666667
0.0008466666667
0.0008466666667
0.0008466666667
0.0008466666667
0.0008466666667
0.0008466666667
0.0008466666667
0.0008466666667
0.0008466666667
0.0008466666667
0.0008466666667
0.0008466666667
0.0008466666667
0.0008466666667
0.0008466666667
0.0008466666667
0.0008466666667
0.0008466666667
0.0008466666667
0.0008466666666
0.0008466666666
0.0008466666666
0.0008466666666
0.0008466666666
0.0008466666666
0.0008466666666
0.0008466666666
0.0008466666666
0.0008466666666
0.0008466666666
0.0008466666666
0.0008466666666
0.0008466666666
0.0008466666666
0.0008466666666
0.0008466666666
0.0008466666666
0.0008466666666
0.0008466666666
0.0008466666666
0.0008466666666
0.0008466666666
0.0008466666666
0.0008466666666
0.0008466666666
0.0008466666666
0.0008466666666
0.0008466666666
0.0008466666666
0.0008466666666
0.0008466666666
0.0008466666666
0.0008466666666
0.0008466666666
0.0008466666666
0.0008466666667
0.0008466666667
0.0008466666667
0.0008466666667
0.0008466666667
0.0008466666667
0.0008466666667
0.0008466666667
0.0008466666667
0.0008466666667
0.0008466666667
0.0008466666667
0.0008466666667
0.0008466666667
0.0008466666667
0.0008466666667
0.0008466666667
0.0008466666667
0.0008466666667
0.0008466666667
0.0008466666667
0.0008466666667
0.0008466666667
0.0008466666667
0.0008466666667
0.0008466666667
0.0008466666667
0.0008466666667
0.0008466666667
0.0008466666667
0.0008466666667
0.0008466666667
0.0008466666667
0.0008466666667
0.0008466666667
0.0008466666667
0.0008466666667
0.0008466666667
0.0008466666667
0.0008466666667
0.0008466666667
0.0008466666667
0.0008466666667
0.0008466666667
0.0008466666667
0.0008466666667
0.0008466666667
0.0008466666667
0.0008466666667
0.0008466666667
0.0008466666667
0.0008466666667
0.0008466666667
0.0008466666667
0.0008466666667
0.0008466666667
0.0008466666667
0.0008466666667
0.0008466666667
0.0008466666667
0.0008466666667
0.0008466666667
0.0008466666667
0.0008466666667
0.0008466666667
0.0008466666667
0.0008466666667
0.0008466666667
0.0008466666667
0.0008466666667
0.0008466666667
0.0008466666667
0.0008466666666
0.0008466666666
0.0008466666666
0.0008466666666
0.0008466666666
0.0008466666666
0.0008466666666
0.0008466666666
0.0008466666666
0.0008466666666
0.0008466666666
0.0008466666666
0.0008466666666
0.0008466666666
0.0008466666666
0.0008466666666
0.0008466666666
0.0008466666666
0.0008466666666
0.0008466666666
0.0008466666666
0.0008466666666
0.0008466666666
0.0008466666666
0.0008466666666
0.0008466666666
0.0008466666666
0.0008466666666
0.0008466666666
0.0008466666666
0.0008466666666
0.0008466666666
0.0008466666666
0.0008466666666
0.0008466666666
0.0008466666666
0.0008466666667
0.0008466666667
0.0008466666667
0.0008466666667
0.0008466666667
0.0008466666667
0.0008466666667
0.0008466666667
0.0008466666667
0.0008466666667
0.0008466666667
0.0008466666667
0.0008466666667
0.0008466666667
0.0008466666667
0.0008466666667
0.0008466666667
0.0008466666667
0.0008466666667
0.0008466666667
0.0008466666667
0.0008466666667
0.0008466666667
0.0008466666667
0.0008466666667
0.0008466666667
0.0008466666667
0.0008466666667
0.0008466666667
0.0008466666667
0.0008466666667
0.0008466666667
0.0008466666667
0.0008466666667
0.0008466666667
0.0008466666667
0.0008466666667
0.0008466666667
0.0008466666667
0.0008466666667
0.0008466666667
0.0008466666667
0.0008466666667
0.0008466666667
0.0008466666667
0.0008466666667
0.0008466666667
0.0008466666667
0.0008466666667
0.0008466666667
0.0008466666667
0.0008466666667
0.0008466666667
0.0008466666667
0.0008466666667
0.0008466666667
0.0008466666667
0.0008466666667
0.0008466666667
0.0008466666667
0.0008466666667
0.0008466666667
0.0008466666667
0.0008466666667
0.0008466666667
0.0008466666667
0.0008466666667
0.0008466666667
0.0008466666667
0.0008466666667
0.0008466666667
0.0008466666667
0.0008466666666
0.0008466666666
0.0008466666666
0.0008466666666
0.0008466666666
0.0008466666666
0.0008466666666
0.0008466666666
0.0008466666666
0.0008466666666
0.0008466666666
0.0008466666666
0.0008466666666
0.0008466666666
0.0008466666666
0.0008466666666
0.0008466666666
0.0008466666666
0.0008466666666
0.0008466666666
0.0008466666666
0.0008466666666
0.0008466666666
0.0008466666666
0.0008466666666
0.0008466666666
0.0008466666666
0.0008466666666
0.0008466666666
0.0008466666666
0.0008466666666
0.0008466666666
0.0008466666666
0.0008466666666
0.0008466666666
0.0008466666666
0.0008466666667
0.0008466666667
0.0008466666667
0.0008466666667
0.0008466666667
0.0008466666667
0.0008466666667
0.0008466666667
0.0008466666667
0.0008466666667
0.0008466666667
0.0008466666667
0.0008466666667
0.0008466666667
0.0008466666667
0.0008466666667
0.0008466666667
0.0008466666667
0.0008466666667
0.0008466666667
0.0008466666667
0.0008466666667
0.0008466666667
0.0008466666667
0.0008466666667
0.0008466666667
0.0008466666667
0.0008466666667
0.0008466666667
0.0008466666667
0.0008466666667
0.0008466666667
0.0008466666667
0.0008466666667
0.0008466666667
0.0008466666667
0.0008466666667
0.0008466666667
0.0008466666667
0.0008466666667
0.0008466666667
0.0008466666667
0.0008466666667
0.0008466666667
0.0008466666667
0.0008466666667
0.0008466666667
0.0008466666667
0.0008466666667
0.0008466666667
0.0008466666667
0.0008466666667
0.0008466666667
0.0008466666667
0.0008466666667
0.0008466666667
0.0008466666667
0.0008466666667
0.0008466666667
0.0008466666667
0.0008466666667
0.0008466666667
0.0008466666667
0.0008466666667
0.0008466666667
0.0008466666667
0.0008466666667
0.0008466666667
0.0008466666667
0.0008466666667
0.0008466666667
0.0008466666667
0.0008466666666
0.0008466666666
0.0008466666666
0.0008466666666
0.0008466666666
0.0008466666666
0.0008466666666
0.0008466666666
0.0008466666666
0.0008466666666
0.0008466666666
0.0008466666666
0.0008466666666
0.0008466666666
0.0008466666666
0.0008466666666
0.0008466666666
0.0008466666666
0.0008466666666
0.0008466666666
0.0008466666666
0.0008466666666
0.0008466666666
0.0008466666666
0.0008466666666
0.0008466666666
0.0008466666666
0.0008466666666
0.0008466666666
0.0008466666666
0.0008466666666
0.0008466666666
0.0008466666666
0.0008466666666
0.0008466666666
0.0008466666666
0.0008466666667
0.0008466666667
0.0008466666667
0.0008466666667
0.0008466666667
0.0008466666667
0.0008466666667
0.0008466666667
0.0008466666667
0.0008466666667
0.0008466666667
0.0008466666667
0.0008466666667
0.0008466666667
0.0008466666667
0.0008466666667
0.0008466666667
0.0008466666667
0.0008466666667
0.0008466666667
0.0008466666667
0.0008466666667
0.0008466666667
0.0008466666667
0.0008466666667
0.0008466666667
0.0008466666667
0.0008466666667
0.0008466666667
0.0008466666667
0.0008466666667
0.0008466666667
0.0008466666667
0.0008466666667
0.0008466666667
0.0008466666667
0.0008466666667
0.0008466666667
0.0008466666667
0.0008466666667
0.0008466666667
0.0008466666667
0.0008466666667
0.0008466666667
0.0008466666667
0.0008466666667
0.0008466666667
0.0008466666667
0.0008466666667
0.0008466666667
0.0008466666667
0.0008466666667
0.0008466666667
0.0008466666667
0.0008466666667
0.0008466666667
0.0008466666667
0.0008466666667
0.0008466666667
0.0008466666667
0.0008466666667
0.0008466666667
0.0008466666667
0.0008466666667
0.0008466666667
0.0008466666667
0.0008466666667
0.0008466666667
0.0008466666667
0.0008466666667
0.0008466666667
0.0008466666667
0.0008466666666
0.0008466666666
0.0008466666666
0.0008466666666
0.0008466666666
0.0008466666666
0.0008466666666
0.0008466666666
0.0008466666666
0.0008466666666
0.0008466666666
0.0008466666666
0.0008466666666
0.0008466666666
0.0008466666666
0.0008466666666
0.0008466666666
0.0008466666666
0.0008466666666
0.0008466666666
0.0008466666666
0.0008466666666
0.0008466666666
0.0008466666666
0.0008466666666
0.0008466666666
0.0008466666666
0.0008466666666
0.0008466666666
0.0008466666666
0.0008466666666
0.0008466666666
0.0008466666666
0.0008466666666
0.0008466666666
0.0008466666666
0.0008466666667
0.0008466666667
0.0008466666667
0.0008466666667
0.0008466666667
0.0008466666667
0.0008466666667
0.0008466666667
0.0008466666667
0.0008466666667
0.0008466666667
0.0008466666667
0.0008466666667
0.0008466666667
0.0008466666667
0.0008466666667
0.0008466666667
0.0008466666667
0.0008466666667
0.0008466666667
0.0008466666667
0.0008466666667
0.0008466666667
0.0008466666667
0.0008466666667
0.0008466666667
0.0008466666667
0.0008466666667
0.0008466666667
0.0008466666667
0.0008466666667
0.0008466666667
0.0008466666667
0.0008466666667
0.0008466666667
0.0008466666667
0.0008466666667
0.0008466666667
0.0008466666667
0.0008466666667
0.0008466666667
0.0008466666667
0.0008466666667
0.0008466666667
0.0008466666667
0.0008466666667
0.0008466666667
0.0008466666667
0.0008466666667
0.0008466666667
0.0008466666667
0.0008466666667
0.0008466666667
0.0008466666667
0.0008466666667
0.0008466666667
0.0008466666667
0.0008466666667
0.0008466666667
0.0008466666667
0.0008466666667
0.0008466666667
0.0008466666667
0.0008466666667
0.0008466666667
0.0008466666667
0.0008466666667
0.0008466666667
0.0008466666667
0.0008466666667
0.0008466666667
0.0008466666667
0.0008466666666
0.0008466666666
0.0008466666666
0.0008466666666
0.0008466666666
0.0008466666666
0.0008466666666
0.0008466666666
0.0008466666666
0.0008466666666
0.0008466666666
0.0008466666666
0.0008466666666
0.0008466666666
0.0008466666666
0.0008466666666
0.0008466666666
0.0008466666666
0.0008466666666
0.0008466666666
0.0008466666666
0.0008466666666
0.0008466666666
0.0008466666666
0.0008466666666
0.0008466666666
0.0008466666666
0.0008466666666
0.0008466666666
0.0008466666666
0.0008466666666
0.0008466666666
0.0008466666666
0.0008466666666
0.0008466666666
0.0008466666666
0.0008466666667
0.0008466666667
0.0008466666667
0.0008466666667
0.0008466666667
0.0008466666667
0.0008466666667
0.0008466666667
0.0008466666667
0.0008466666667
0.0008466666667
0.0008466666667
0.0008466666667
0.0008466666667
0.0008466666667
0.0008466666667
0.0008466666667
0.0008466666667
0.0008466666667
0.0008466666667
0.0008466666667
0.0008466666667
0.0008466666667
0.0008466666667
0.0008466666667
0.0008466666667
0.0008466666667
0.0008466666667
0.0008466666667
0.0008466666667
0.0008466666667
0.0008466666667
0.0008466666667
0.0008466666667
0.0008466666667
0.0008466666667
0.0008466666667
0.0008466666667
0.0008466666667
0.0008466666667
0.0008466666667
0.0008466666667
0.0008466666667
0.0008466666667
0.0008466666667
0.0008466666667
0.0008466666667
0.0008466666667
0.0008466666667
0.0008466666667
0.0008466666667
0.0008466666667
0.0008466666667
0.0008466666667
0.0008466666667
0.0008466666667
0.0008466666667
0.0008466666667
0.0008466666667
0.0008466666667
0.0008466666667
0.0008466666667
0.0008466666667
0.0008466666667
0.0008466666667
0.0008466666667
0.0008466666667
0.0008466666667
0.0008466666667
0.0008466666667
0.0008466666667
0.0008466666667
0.0008466666666
0.0008466666666
0.0008466666666
0.0008466666666
0.0008466666666
0.0008466666666
0.0008466666666
0.0008466666666
0.0008466666666
0.0008466666666
0.0008466666666
0.0008466666666
0.0008466666666
0.0008466666666
0.0008466666666
0.0008466666666
0.0008466666666
0.0008466666666
0.0008466666666
0.0008466666666
0.0008466666666
0.0008466666666
0.0008466666666
0.0008466666666
0.0008466666666
0.0008466666666
0.0008466666666
0.0008466666666
0.0008466666666
0.0008466666666
0.0008466666666
0.0008466666666
0.0008466666666
0.0008466666666
0.0008466666666
0.0008466666666
0.0008466666667
0.0008466666667
0.0008466666667
0.0008466666667
0.0008466666667
0.0008466666667
0.0008466666667
0.0008466666667
0.0008466666667
0.0008466666667
0.0008466666667
0.0008466666667
0.0008466666667
0.0008466666667
0.0008466666667
0.0008466666667
0.0008466666667
0.0008466666667
0.0008466666667
0.0008466666667
0.0008466666667
0.0008466666667
0.0008466666667
0.0008466666667
0.0008466666667
0.0008466666667
0.0008466666667
0.0008466666667
0.0008466666667
0.0008466666667
0.0008466666667
0.0008466666667
0.0008466666667
0.0008466666667
0.0008466666667
0.0008466666667
0.0008466666667
0.0008466666667
0.0008466666667
0.0008466666667
0.0008466666667
0.0008466666667
0.0008466666667
0.0008466666667
0.0008466666667
0.0008466666667
0.0008466666667
0.0008466666667
0.0008466666667
0.0008466666667
0.0008466666667
0.0008466666667
0.0008466666667
0.0008466666667
0.0008466666667
0.0008466666667
0.0008466666667
0.0008466666667
0.0008466666667
0.0008466666667
0.0008466666667
0.0008466666667
0.0008466666667
0.0008466666667
0.0008466666667
0.0008466666667
0.0008466666667
0.0008466666667
0.0008466666667
0.0008466666667
0.0008466666667
0.0008466666667
0.0008466666666
0.0008466666666
0.0008466666666
0.0008466666666
0.0008466666666
0.0008466666666
0.0008466666666
0.0008466666666
0.0008466666666
0.0008466666666
0.0008466666666
0.0008466666666
0.0008466666666
0.0008466666666
0.0008466666666
0.0008466666666
0.0008466666666
0.0008466666666
0.0008466666666
0.0008466666666
0.0008466666666
0.0008466666666
0.0008466666666
0.0008466666666
0.0008466666666
0.0008466666666
0.0008466666666
0.0008466666666
0.0008466666666
0.0008466666666
0.0008466666666
0.0008466666666
0.0008466666666
0.0008466666666
0.0008466666666
0.0008466666666
0.0008466666667
0.0008466666667
0.0008466666667
0.0008466666667
0.0008466666667
0.0008466666667
0.0008466666667
0.0008466666667
0.0008466666667
0.0008466666667
0.0008466666667
0.0008466666667
0.0008466666667
0.0008466666667
0.0008466666667
0.0008466666667
0.0008466666667
0.0008466666667
0.0008466666667
0.0008466666667
0.0008466666667
0.0008466666667
0.0008466666667
0.0008466666667
0.0008466666667
0.0008466666667
0.0008466666667
0.0008466666667
0.0008466666667
0.0008466666667
0.0008466666667
0.0008466666667
0.0008466666667
0.0008466666667
0.0008466666667
0.0008466666667
0.0008466666667
0.0008466666667
0.0008466666667
0.0008466666667
0.0008466666667
0.0008466666667
0.0008466666667
0.0008466666667
0.0008466666667
0.0008466666667
0.0008466666667
0.0008466666667
0.0008466666667
0.0008466666667
0.0008466666667
0.0008466666667
0.0008466666667
0.0008466666667
0.0008466666667
0.0008466666667
0.0008466666667
0.0008466666667
0.0008466666667
0.0008466666667
0.0008466666667
0.0008466666667
0.0008466666667
0.0008466666667
0.0008466666667
0.0008466666667
0.0008466666667
0.0008466666667
0.0008466666667
0.0008466666667
0.0008466666667
0.0008466666667
0.0008466666666
0.0008466666666
0.0008466666666
0.0008466666666
0.0008466666666
0.0008466666666
0.0008466666666
0.0008466666666
0.0008466666666
0.0008466666666
0.0008466666666
0.0008466666666
0.0008466666666
0.0008466666666
0.0008466666666
0.0008466666666
0.0008466666666
0.0008466666666
0.0008466666666
0.0008466666666
0.0008466666666
0.0008466666666
0.0008466666666
0.0008466666666
0.0008466666666
0.0008466666666
0.0008466666666
0.0008466666666
0.0008466666666
0.0008466666666
0.0008466666666
0.0008466666666
0.0008466666666
0.0008466666666
0.0008466666666
0.0008466666666
0.0008466666667
0.0008466666667
0.0008466666667
0.0008466666667
0.0008466666667
0.0008466666667
0.0008466666667
0.0008466666667
0.0008466666667
0.0008466666667
0.0008466666667
0.0008466666667
0.0008466666667
0.0008466666667
0.0008466666667
0.0008466666667
0.0008466666667
0.0008466666667
0.0008466666667
0.0008466666667
0.0008466666667
0.0008466666667
0.0008466666667
0.0008466666667
0.0008466666667
0.0008466666667
0.0008466666667
0.0008466666667
0.0008466666667
0.0008466666667
0.0008466666667
0.0008466666667
0.0008466666667
0.0008466666667
0.0008466666667
0.0008466666667
0.0008466666667
0.0008466666667
0.0008466666667
0.0008466666667
0.0008466666667
0.0008466666667
0.0008466666667
0.0008466666667
0.0008466666667
0.0008466666667
0.0008466666667
0.0008466666667
0.0008466666667
0.0008466666667
0.0008466666667
0.0008466666667
0.0008466666667
0.0008466666667
0.0008466666667
0.0008466666667
0.0008466666667
0.0008466666667
0.0008466666667
0.0008466666667
0.0008466666667
0.0008466666667
0.0008466666667
0.0008466666667
0.0008466666667
0.0008466666667
0.0008466666667
0.0008466666667
0.0008466666667
0.0008466666667
0.0008466666667
0.0008466666667
0.0008466666666
0.0008466666666
0.0008466666666
0.0008466666666
0.0008466666666
0.0008466666666
0.0008466666666
0.0008466666666
0.0008466666666
0.0008466666666
0.0008466666666
0.0008466666666
0.0008466666666
0.0008466666666
0.0008466666666
0.0008466666666
0.0008466666666
0.0008466666666
0.0008466666666
0.0008466666666
0.0008466666666
0.0008466666666
0.0008466666666
0.0008466666666
0.0008466666666
0.0008466666666
0.0008466666666
0.0008466666666
0.0008466666666
0.0008466666666
0.0008466666666
0.0008466666666
0.0008466666666
0.0008466666666
0.0008466666666
0.0008466666666
0.0008466666667
0.0008466666667
0.0008466666667
0.0008466666667
0.0008466666667
0.0008466666667
0.0008466666667
0.0008466666667
0.0008466666667
0.0008466666667
0.0008466666667
0.0008466666667
0.0008466666667
0.0008466666667
0.0008466666667
0.0008466666667
0.0008466666667
0.0008466666667
0.0008466666667
0.0008466666667
0.0008466666667
0.0008466666667
0.0008466666667
0.0008466666667
0.0008466666667
0.0008466666667
0.0008466666667
0.0008466666667
0.0008466666667
0.0008466666667
0.0008466666667
0.0008466666667
0.0008466666667
0.0008466666667
0.0008466666667
0.0008466666667
0.0008466666667
0.0008466666667
0.0008466666667
0.0008466666667
0.0008466666667
0.0008466666667
0.0008466666667
0.0008466666667
0.0008466666667
0.0008466666667
0.0008466666667
0.0008466666667
0.0008466666667
0.0008466666667
0.0008466666667
0.0008466666667
0.0008466666667
0.0008466666667
0.0008466666667
0.0008466666667
0.0008466666667
0.0008466666667
0.0008466666667
0.0008466666667
0.0008466666667
0.0008466666667
0.0008466666667
0.0008466666667
0.0008466666667
0.0008466666667
0.0008466666667
0.0008466666667
0.0008466666667
0.0008466666667
0.0008466666667
0.0008466666667
0.0008466666666
0.0008466666666
0.0008466666666
0.0008466666666
0.0008466666666
0.0008466666666
0.0008466666666
0.0008466666666
0.0008466666666
0.0008466666666
0.0008466666666
0.0008466666666
0.0008466666666
0.0008466666666
0.0008466666666
0.0008466666666
0.0008466666666
0.0008466666666
0.0008466666666
0.0008466666666
0.0008466666666
0.0008466666666
0.0008466666666
0.0008466666666
0.0008466666666
0.0008466666666
0.0008466666666
0.0008466666666
0.0008466666666
0.0008466666666
0.0008466666666
0.0008466666666
0.0008466666666
0.0008466666666
0.0008466666666
0.0008466666666
0.0008466666667
0.0008466666667
0.0008466666667
0.0008466666667
0.0008466666667
0.0008466666667
0.0008466666667
0.0008466666667
0.0008466666667
0.0008466666667
0.0008466666667
0.0008466666667
0.0008466666667
0.0008466666667
0.0008466666667
0.0008466666667
0.0008466666667
0.0008466666667
0.0008466666667
0.0008466666667
0.0008466666667
0.0008466666667
0.0008466666667
0.0008466666667
0.0008466666667
0.0008466666667
0.0008466666667
0.0008466666667
0.0008466666667
0.0008466666667
0.0008466666667
0.0008466666667
0.0008466666667
0.0008466666667
0.0008466666667
0.0008466666667
0.0008466666667
0.0008466666667
0.0008466666667
0.0008466666667
0.0008466666667
0.0008466666667
0.0008466666667
0.0008466666667
0.0008466666667
0.0008466666667
0.0008466666667
0.0008466666667
0.0008466666667
0.0008466666667
0.0008466666667
0.0008466666667
0.0008466666667
0.0008466666667
0.0008466666667
0.0008466666667
0.0008466666667
0.0008466666667
0.0008466666667
0.0008466666667
0.0008466666667
0.0008466666667
0.0008466666667
0.0008466666667
0.0008466666667
0.0008466666667
0.0008466666667
0.0008466666667
0.0008466666667
0.0008466666667
0.0008466666667
0.0008466666667
0.0008466666666
0.0008466666666
0.0008466666666
0.0008466666666
0.0008466666666
0.0008466666666
0.0008466666666
0.0008466666666
0.0008466666666
0.0008466666666
0.0008466666666
0.0008466666666
0.0008466666666
0.0008466666666
0.0008466666666
0.0008466666666
0.0008466666666
0.0008466666666
0.0008466666666
0.0008466666666
0.0008466666666
0.0008466666666
0.0008466666666
0.0008466666666
0.0008466666666
0.0008466666666
0.0008466666666
0.0008466666666
0.0008466666666
0.0008466666666
0.0008466666666
0.0008466666666
0.0008466666666
0.0008466666666
0.0008466666666
0.0008466666666
0.0008466666667
0.0008466666667
0.0008466666667
0.0008466666667
0.0008466666667
0.0008466666667
0.0008466666667
0.0008466666667
0.0008466666667
0.0008466666667
0.0008466666667
0.0008466666667
0.0008466666667
0.0008466666667
0.0008466666667
0.0008466666667
0.0008466666667
0.0008466666667
0.0008466666667
0.0008466666667
0.0008466666667
0.0008466666667
0.0008466666667
0.0008466666667
0.0008466666667
0.0008466666667
0.0008466666667
0.0008466666667
0.0008466666667
0.0008466666667
0.0008466666667
0.0008466666667
0.0008466666667
0.0008466666667
0.0008466666667
0.0008466666667
0.0008466666667
0.0008466666667
0.0008466666667
0.0008466666667
0.0008466666667
0.0008466666667
0.0008466666667
0.0008466666667
0.0008466666667
0.0008466666667
0.0008466666667
0.0008466666667
0.0008466666667
0.0008466666667
0.0008466666667
0.0008466666667
0.0008466666667
0.0008466666667
0.0008466666667
0.0008466666667
0.0008466666667
0.0008466666667
0.0008466666667
0.0008466666667
0.0008466666667
0.0008466666667
0.0008466666667
0.0008466666667
0.0008466666667
0.0008466666667
0.0008466666667
0.0008466666667
0.0008466666667
0.0008466666667
0.0008466666667
0.0008466666667
0.0008466666666
0.0008466666666
0.0008466666666
0.0008466666666
0.0008466666666
0.0008466666666
0.0008466666666
0.0008466666666
0.0008466666666
0.0008466666666
0.0008466666666
0.0008466666666
0.0008466666666
0.0008466666666
0.0008466666666
0.0008466666666
0.0008466666666
0.0008466666666
0.0008466666666
0.0008466666666
0.0008466666666
0.0008466666666
0.0008466666666
0.0008466666666
0.0008466666666
0.0008466666666
0.0008466666666