/*--------------------------------*- C++ -*----------------------------------*\
| =========                 |                                                 |
| \\      /  F ield         | OpenFOAM: The Open Source CFD Toolbox           |
|  \\    /   O peration     | Version:  2112                                  |
|   \\  /    A nd           | Website:  www.openfoam.com                      |
|    \\/     M anipulation  |                                                 |
\*---------------------------------------------------------------------------*/
FoamFile
{
    version     2.0;
    format      ascii;
    arch        "LSB;label=64;scalar=64";
    class       polyBoundaryMesh;
    location    "1e-08/polyMesh";
    object      boundary;
}
// * * * * * * * * * * * * * * * * * * * * * * * * * * * * * * * * * * * * * //

8
(
    front
    {
        type            wedge;
        inGroups        1(wedge);
        nFaces          368800;
        startFace       734861;
    }
    back
    {
        type            wedge;
        inGroups        1(wedge);
        nFaces          368800;
        startFace       1103661;
    }
    Wall
    {
        type            wall;
        inGroups        1(wall);
        nFaces          920;
        startFace       1472461;
    }
    nozzleWall
    {
        type            wall;
        inGroups        1(wall);
        nFaces          940;
        startFace       1473381;
    }
    inlet
    {
        type            patch;
        nFaces          800;
        startFace       1474321;
    }
    outlet
    {
        type            patch;
        nFaces          120;
        startFace       1475121;
    }
    block2I1
    {
        type            default;
        nFaces          80;
        startFace       1475241;
        faces           ( ( 6 10 7 6 ) );
    }
    PCWall
    {
        type            default;
        nFaces          81;
        startFace       1475321;
        faces           ( ( 9 11 8 9 ) );
    }
)

// ************************************************************************* //
