/*--------------------------------*- C++ -*----------------------------------*\
| =========                 |                                                 |
| \\      /  F ield         | OpenFOAM: The Open Source CFD Toolbox           |
|  \\    /   O peration     | Version:  2112                                  |
|   \\  /    A nd           | Website:  www.openfoam.com                      |
|    \\/     M anipulation  |                                                 |
\*---------------------------------------------------------------------------*/
FoamFile
{
    version     2.0;
    format      ascii;
    arch        "LSB;label=64;scalar=64";
    class       polyBoundaryMesh;
    location    "constant/polyMesh";
    object      boundary;
}
// * * * * * * * * * * * * * * * * * * * * * * * * * * * * * * * * * * * * * //

7
(
    front
    {
        type            wedge;
        inGroups        1(wedge);
        nFaces          6270;
        startFace       12194;
    }
    back
    {
        type            wedge;
        inGroups        1(wedge);
        nFaces          6270;
        startFace       18464;
    }
    Wall
    {
        type            wall;
        inGroups        1(wall);
        nFaces          160;
        startFace       24734;
    }
    nozzleWall
    {
        type            wall;
        inGroups        1(wall);
        nFaces          162;
        startFace       24894;
    }
    inlet
    {
        type            patch;
        nFaces          24;
        startFace       25056;
    }
    outlet
    {
        type            patch;
        nFaces          15;
        startFace       25080;
    }
    PCWall
    {
        type            default;
        nFaces          9;
        startFace       25095;
        faces           ( ( 9 11 8 9 ) );
    }
)

// ************************************************************************* //
