/*--------------------------------*- C++ -*----------------------------------*\
| =========                 |                                                 |
| \\      /  F ield         | OpenFOAM: The Open Source CFD Toolbox           |
|  \\    /   O peration     | Version:  v2112                                 |
|   \\  /    A nd           | Website:  www.openfoam.com                      |
|    \\/     M anipulation  |                                                 |
\*---------------------------------------------------------------------------*/
FoamFile
{
    version     2.0;
    format      ascii;
    class       dictionary;
    object      controlDict;
}
// * * * * * * * * * * * * * * * * * * * * * * * * * * * * * * * * * * * * * //

application     rocketMotor;

startFrom       startTime;

startTime       0;

stopAt          endTime;

endTime         1;

deltaT          1e-9;

//writeControl    timeStep;
writeControl    adjustableRunTime;

writeInterval   1e-4;
//writeInterval   1;

purgeWrite      0;

writeFormat     ascii;

writePrecision  12;

writeCompression off;

timeFormat      general;

timePrecision   12;

runTimeModifiable yes;

adjustTimeStep  yes;

transCo		0.3;
maxCo		0.5;

maxDeltaT       2e-8;

// ************************************************************************* //
