/*--------------------------------*- C++ -*----------------------------------*\
| =========                 |                                                 |
| \\      /  F ield         | OpenFOAM: The Open Source CFD Toolbox           |
|  \\    /   O peration     | Version:  v2112                                 |
|   \\  /    A nd           | Website:  www.openfoam.com                      |
|    \\/     M anipulation  |                                                 |
\*---------------------------------------------------------------------------*/
FoamFile
{
    version     2.0;
    format      ascii;
    class       dictionary;
    object      controlDict;
}
// * * * * * * * * * * * * * * * * * * * * * * * * * * * * * * * * * * * * * //

application     rocketMotor;

startFrom       latestTime;

startTime       0.00505;

stopAt          endTime;

endTime         0.00511;

deltaT          1e-9;

//writeControl    timeStep;
writeControl    adjustableRunTime;

writeInterval   1e-5;
//writeInterval   1;

purgeWrite      0;

writeFormat     ascii;

writePrecision  12;

writeCompression off;

timeFormat      general;

timePrecision   12;

runTimeModifiable yes;

adjustTimeStep  yes;

maxCo           0.4;

maxDeltaT       1e-8;

DebugSwitches
{
	SolverPerformance	1;
}

function1s
{
	centerLine
	(
	 	fields  (p, p_rgh);
	);
}
// ************************************************************************* //
